@<TRIPOS>MOLECULE
guest-s17_vm2.mol2 : vm2 ligand conformer 1
          25          25           1
SMALL
USER_CHARGES
 
@<TRIPOS>ATOM
       1    C1      21.264945   19.569980   21.138371 C.3        1 MOL1        -0.1684
       2    H1      21.774572   19.741474   20.180270 H          1 MOL1         0.0833
       3    H2      22.046896   19.718283   21.891604 H          1 MOL1         0.0833
       4    C2      20.759524   18.103806   21.158316 C.3        1 MOL1        -0.1684
       5    H3      19.715224   18.040865   20.826529 H          1 MOL1         0.0833
       6    H4      21.332678   17.546817   20.404480 H          1 MOL1         0.0833
       7    C3      20.952986   17.366203   22.509384 C.3        1 MOL1        -0.1684
       8    H5      22.013360   17.400520   22.794718 H          1 MOL1         0.0833
       9    H6      20.726665   16.303857   22.345149 H          1 MOL1         0.0833
      10    C4      20.085772   17.854786   23.700274 C.3        1 MOL1        -0.1760
      11    H7      19.020285   17.798948   23.447811 H          1 MOL1         0.0833
      12    H8      20.224581   17.130962   24.514731 H          1 MOL1         0.0833
      13    C5      20.454438   19.264585   24.230117 C.3        1 MOL1         0.1219
      14    H9      21.470261   19.513826   23.901724 H          1 MOL1         0.0790
      15    C6      19.485781   20.391414   23.794561 C.3        1 MOL1        -0.1760
      16    H10     18.576923   20.318182   24.407038 H          1 MOL1         0.0833
      17    H11     19.939798   21.359801   24.041161 H          1 MOL1         0.0833
      18    C7      19.043648   20.409525   22.308554 C.3        1 MOL1        -0.1684
      19    H12     18.309093   21.218490   22.195840 H          1 MOL1         0.0833
      20    H13     18.489033   19.496687   22.062748 H          1 MOL1         0.0833
      21    C8      20.164518   20.655253   21.267588 C.3        1 MOL1        -0.1684
      22    H14     19.682185   20.760381   20.286106 H          1 MOL1         0.0833
      23    H15     20.641115   21.624366   21.468199 H          1 MOL1         0.0833
      24    O1      20.452388   19.227447   25.652835 O.3        1 MOL1        -0.5508
      25    H16     20.731550   20.115647   25.958785 H          1 MOL1         0.3780
@<TRIPOS>BOND
    1     1     2    1
    2     1     3    1
    3     1     4    1
    4     4     5    1
    5     4     6    1
    6     4     7    1
    7     7     8    1
    8     7     9    1
    9     7    10    1
   10    10    11    1
   11    10    12    1
   12    10    13    1
   13    13    14    1
   14    13    15    1
   15    15    16    1
   16    15    17    1
   17    15    18    1
   18    18    19    1
   19    18    20    1
   20     1    21    1
   21    18    21    1
   22    21    22    1
   23    21    23    1
   24    13    24    1
   25    24    25    1
@<TRIPOS>SUBSTRUCTURE
       1 MOL1            1 RESIDUE      1      MOL     
@<SCITEGIC>MOL_PROPERTY
VM2 Rank
SciTegic.value.IntegerValue
1

@<SCITEGIC>MOL_PROPERTY
Conf_Id
SciTegic.value.IntegerValue
1872

@<SCITEGIC>MOL_PROPERTY
Probability
SciTegic.value.DoubleValue
4.62

@<SCITEGIC>MOL_PROPERTY
Sum Probability
SciTegic.value.DoubleValue
4.62

@<SCITEGIC>MOL_PROPERTY
Delta G
SciTegic.value.DoubleValue
0.000

@<SCITEGIC>MOL_PROPERTY
G
SciTegic.value.DoubleValue
62.075

@<SCITEGIC>MOL_PROPERTY
E
SciTegic.value.DoubleValue
29.291

@<SCITEGIC>MOL_PROPERTY
-TS
SciTegic.value.DoubleValue
32.785

@<SCITEGIC>MOL_PROPERTY
U+W
SciTegic.value.DoubleValue
8.723

@<SCITEGIC>MOL_PROPERTY
U
SciTegic.value.DoubleValue
10.905

@<SCITEGIC>MOL_PROPERTY
W
SciTegic.value.DoubleValue
-2.182

@<SCITEGIC>MOL_PROPERTY
W(PB)
SciTegic.value.DoubleValue
-4.296

@<SCITEGIC>MOL_PROPERTY
W(SA)
SciTegic.value.DoubleValue
2.114

@<SCITEGIC>MOL_PROPERTY
Valence
SciTegic.value.DoubleValue
16.378

@<SCITEGIC>MOL_PROPERTY
Coulomb
SciTegic.value.DoubleValue
-8.448

@<SCITEGIC>MOL_PROPERTY
VdW
SciTegic.value.DoubleValue
2.976

@<SCITEGIC>MOL_PROPERTY
VdW6
SciTegic.value.DoubleValue
-12.570

@<SCITEGIC>MOL_PROPERTY
VdW12
SciTegic.value.DoubleValue
15.546

@<SCITEGIC>MOL_PROPERTY
Bond
SciTegic.value.DoubleValue
0.439

@<SCITEGIC>MOL_PROPERTY
Angle
SciTegic.value.DoubleValue
5.049

@<SCITEGIC>MOL_PROPERTY
Pdih
SciTegic.value.DoubleValue
10.889

@<SCITEGIC>MOL_PROPERTY
Idih
SciTegic.value.DoubleValue
0.000

@<SCITEGIC>MOL_PROPERTY
Tether
SciTegic.value.DoubleValue
0.000

@<TRIPOS>MOLECULE
guest-s17_vm2.mol2 : vm2 ligand conformer 2
          25          25           1
SMALL
USER_CHARGES
 
@<TRIPOS>ATOM
       1    C1      21.265594   19.569587   21.138586 C.3        1 MOL1        -0.1684
       2    H1      21.773478   19.740491   20.179452 H          1 MOL1         0.0833
       3    H2      22.049487   19.717723   21.889816 H          1 MOL1         0.0833
       4    C2      20.760028   18.103371   21.159638 C.3        1 MOL1        -0.1684
       5    H3      19.715685   18.040566   20.827933 H          1 MOL1         0.0833
       6    H4      21.332951   17.546023   20.405882 H          1 MOL1         0.0833
       7    C3      20.953496   17.365882   22.510884 C.3        1 MOL1        -0.1684
       8    H5      22.013694   17.400841   22.796754 H          1 MOL1         0.0833
       9    H6      20.727939   16.303421   22.346007 H          1 MOL1         0.0833
      10    C4      20.083262   17.854244   23.699301 C.3        1 MOL1        -0.1760
      11    H7      19.019175   17.802875   23.439447 H          1 MOL1         0.0833
      12    H8      20.211972   17.126008   24.511105 H          1 MOL1         0.0833
      13    C5      20.452848   19.264328   24.228425 C.3        1 MOL1         0.1219
      14    H9      21.465786   19.519100   23.895681 H          1 MOL1         0.0790
      15    C6      19.481445   20.388734   23.795096 C.3        1 MOL1        -0.1760
      16    H10     18.573360   20.311150   24.407828 H          1 MOL1         0.0833
      17    H11     19.934220   21.355553   24.049849 H          1 MOL1         0.0833
      18    C7      19.042950   20.411413   22.307773 C.3        1 MOL1        -0.1684
      19    H12     18.310480   21.222291   22.195508 H          1 MOL1         0.0833
      20    H13     18.486861   19.500416   22.058628 H          1 MOL1         0.0833
      21    C8      20.166570   20.656511   21.269370 C.3        1 MOL1        -0.1684
      22    H14     20.644766   21.624182   21.473130 H          1 MOL1         0.0833
      23    H15     19.686037   20.765133   20.287392 H          1 MOL1         0.0833
      24    O1      20.457805   19.228930   25.650927 O.3        1 MOL1        -0.5508
      25    H16     21.130838   18.566652   25.913402 H          1 MOL1         0.3780
@<TRIPOS>BOND
    1     1     2    1
    2     1     3    1
    3     1     4    1
    4     4     5    1
    5     4     6    1
    6     4     7    1
    7     7     8    1
    8     7     9    1
    9     7    10    1
   10    10    11    1
   11    10    12    1
   12    10    13    1
   13    13    14    1
   14    13    15    1
   15    15    16    1
   16    15    17    1
   17    15    18    1
   18    18    19    1
   19    18    20    1
   20     1    21    1
   21    18    21    1
   22    21    22    1
   23    21    23    1
   24    13    24    1
   25    24    25    1
@<TRIPOS>SUBSTRUCTURE
       1 MOL1            1 RESIDUE      1      MOL     
@<SCITEGIC>MOL_PROPERTY
VM2 Rank
SciTegic.value.IntegerValue
2

@<SCITEGIC>MOL_PROPERTY
Conf_Id
SciTegic.value.IntegerValue
252

@<SCITEGIC>MOL_PROPERTY
Probability
SciTegic.value.DoubleValue
4.35

@<SCITEGIC>MOL_PROPERTY
Sum Probability
SciTegic.value.DoubleValue
8.96

@<SCITEGIC>MOL_PROPERTY
Delta G
SciTegic.value.DoubleValue
0.036

@<SCITEGIC>MOL_PROPERTY
G
SciTegic.value.DoubleValue
62.111

@<SCITEGIC>MOL_PROPERTY
E
SciTegic.value.DoubleValue
29.304

@<SCITEGIC>MOL_PROPERTY
-TS
SciTegic.value.DoubleValue
32.807

@<SCITEGIC>MOL_PROPERTY
U+W
SciTegic.value.DoubleValue
8.736

@<SCITEGIC>MOL_PROPERTY
U
SciTegic.value.DoubleValue
10.865

@<SCITEGIC>MOL_PROPERTY
W
SciTegic.value.DoubleValue
-2.128

@<SCITEGIC>MOL_PROPERTY
W(PB)
SciTegic.value.DoubleValue
-4.247

@<SCITEGIC>MOL_PROPERTY
W(SA)
SciTegic.value.DoubleValue
2.118

@<SCITEGIC>MOL_PROPERTY
Valence
SciTegic.value.DoubleValue
16.387

@<SCITEGIC>MOL_PROPERTY
Coulomb
SciTegic.value.DoubleValue
-8.479

@<SCITEGIC>MOL_PROPERTY
VdW
SciTegic.value.DoubleValue
2.957

@<SCITEGIC>MOL_PROPERTY
VdW6
SciTegic.value.DoubleValue
-12.577

@<SCITEGIC>MOL_PROPERTY
VdW12
SciTegic.value.DoubleValue
15.534

@<SCITEGIC>MOL_PROPERTY
Bond
SciTegic.value.DoubleValue
0.441

@<SCITEGIC>MOL_PROPERTY
Angle
SciTegic.value.DoubleValue
5.029

@<SCITEGIC>MOL_PROPERTY
Pdih
SciTegic.value.DoubleValue
10.916

@<SCITEGIC>MOL_PROPERTY
Idih
SciTegic.value.DoubleValue
0.000

@<SCITEGIC>MOL_PROPERTY
Tether
SciTegic.value.DoubleValue
0.000

@<TRIPOS>MOLECULE
guest-s17_vm2.mol2 : vm2 ligand conformer 3
          25          25           1
SMALL
USER_CHARGES
 
@<TRIPOS>ATOM
       1    C1      21.242644   19.623779   21.138218 C.3        1 MOL1        -0.1684
       2    H1      21.726080   19.858463   20.179939 H          1 MOL1         0.0833
       3    H2      21.898671   20.075853   21.890587 H          1 MOL1         0.0833
       4    C2      21.232479   18.078899   21.274936 C.3        1 MOL1        -0.1684
       5    H3      22.254529   17.732159   21.479275 H          1 MOL1         0.0833
       6    H4      20.967925   17.658584   20.294961 H          1 MOL1         0.0833
       7    C3      20.264399   17.464653   22.316983 C.3        1 MOL1        -0.1684
       8    H5      20.317814   16.372711   22.209707 H          1 MOL1         0.0833
       9    H6      19.227113   17.716192   22.067868 H          1 MOL1         0.0833
      10    C4      20.561095   17.797519   23.801974 C.3        1 MOL1        -0.1760
      11    H7      19.865787   17.209221   24.415952 H          1 MOL1         0.0833
      12    H8      21.566610   17.435611   24.052332 H          1 MOL1         0.0833
      13    C5      20.447520   19.281292   24.230078 C.3        1 MOL1         0.1219
      14    H9      21.342413   19.822259   23.900865 H          1 MOL1         0.0790
      15    C6      19.190621   20.014170   23.694095 C.3        1 MOL1        -0.1760
      16    H10     18.398639   19.298564   23.443512 H          1 MOL1         0.0833
      17    H11     18.774953   20.627873   24.504725 H          1 MOL1         0.0833
      18    C7      19.460238   20.967194   22.499088 C.3        1 MOL1        -0.1684
      19    H12     20.233307   21.694557   22.782451 H          1 MOL1         0.0833
      20    H13     18.549013   21.557018   22.330120 H          1 MOL1         0.0833
      21    C8      19.848116   20.302471   21.152029 C.3        1 MOL1        -0.1684
      22    H14     19.066228   19.606509   20.822037 H          1 MOL1         0.0833
      23    H15     19.860654   21.097929   20.394335 H          1 MOL1         0.0833
      24    O1      20.416889   19.313023   25.652599 O.3        1 MOL1        -0.5508
      25    H16     21.241957   18.884342   25.962331 H          1 MOL1         0.3780
@<TRIPOS>BOND
    1     1     2    1
    2     1     3    1
    3     1     4    1
    4     4     5    1
    5     4     6    1
    6     4     7    1
    7     7     8    1
    8     7     9    1
    9     7    10    1
   10    10    11    1
   11    10    12    1
   12    10    13    1
   13    13    14    1
   14    13    15    1
   15    15    16    1
   16    15    17    1
   17    15    18    1
   18    18    19    1
   19    18    20    1
   20     1    21    1
   21    18    21    1
   22    21    22    1
   23    21    23    1
   24    13    24    1
   25    24    25    1
@<TRIPOS>SUBSTRUCTURE
       1 MOL1            1 RESIDUE      1      MOL     
@<SCITEGIC>MOL_PROPERTY
VM2 Rank
SciTegic.value.IntegerValue
3

@<SCITEGIC>MOL_PROPERTY
Conf_Id
SciTegic.value.IntegerValue
1283

@<SCITEGIC>MOL_PROPERTY
Probability
SciTegic.value.DoubleValue
4.24

@<SCITEGIC>MOL_PROPERTY
Sum Probability
SciTegic.value.DoubleValue
13.20

@<SCITEGIC>MOL_PROPERTY
Delta G
SciTegic.value.DoubleValue
0.051

@<SCITEGIC>MOL_PROPERTY
G
SciTegic.value.DoubleValue
62.126

@<SCITEGIC>MOL_PROPERTY
E
SciTegic.value.DoubleValue
29.342

@<SCITEGIC>MOL_PROPERTY
-TS
SciTegic.value.DoubleValue
32.784

@<SCITEGIC>MOL_PROPERTY
U+W
SciTegic.value.DoubleValue
8.774

@<SCITEGIC>MOL_PROPERTY
U
SciTegic.value.DoubleValue
10.905

@<SCITEGIC>MOL_PROPERTY
W
SciTegic.value.DoubleValue
-2.131

@<SCITEGIC>MOL_PROPERTY
W(PB)
SciTegic.value.DoubleValue
-4.281

@<SCITEGIC>MOL_PROPERTY
W(SA)
SciTegic.value.DoubleValue
2.150

@<SCITEGIC>MOL_PROPERTY
Valence
SciTegic.value.DoubleValue
16.378

@<SCITEGIC>MOL_PROPERTY
Coulomb
SciTegic.value.DoubleValue
-8.448

@<SCITEGIC>MOL_PROPERTY
VdW
SciTegic.value.DoubleValue
2.976

@<SCITEGIC>MOL_PROPERTY
VdW6
SciTegic.value.DoubleValue
-12.570

@<SCITEGIC>MOL_PROPERTY
VdW12
SciTegic.value.DoubleValue
15.546

@<SCITEGIC>MOL_PROPERTY
Bond
SciTegic.value.DoubleValue
0.439

@<SCITEGIC>MOL_PROPERTY
Angle
SciTegic.value.DoubleValue
5.049

@<SCITEGIC>MOL_PROPERTY
Pdih
SciTegic.value.DoubleValue
10.889

@<SCITEGIC>MOL_PROPERTY
Idih
SciTegic.value.DoubleValue
0.000

@<SCITEGIC>MOL_PROPERTY
Tether
SciTegic.value.DoubleValue
0.000

@<TRIPOS>MOLECULE
guest-s17_vm2.mol2 : vm2 ligand conformer 4
          25          25           1
SMALL
USER_CHARGES
 
@<TRIPOS>ATOM
       1    C1      21.243013   19.624539   21.138549 C.3        1 MOL1        -0.1684
       2    H1      21.724922   19.858413   20.179300 H          1 MOL1         0.0833
       3    H2      21.900206   20.078092   21.888990 H          1 MOL1         0.0833
       4    C2      21.234990   18.079491   21.276829 C.3        1 MOL1        -0.1684
       5    H3      22.257116   17.734917   21.484439 H          1 MOL1         0.0833
       6    H4      20.974315   17.657989   20.296331 H          1 MOL1         0.0833
       7    C3      20.265278   17.462823   22.316181 C.3        1 MOL1        -0.1684
       8    H5      20.321541   16.371008   22.209352 H          1 MOL1         0.0833
       9    H6      19.228289   17.712002   22.063607 H          1 MOL1         0.0833
      10    C4      20.555960   17.796321   23.802519 C.3        1 MOL1        -0.1760
      11    H7      19.857977   17.211698   24.416615 H          1 MOL1         0.0833
      12    H8      21.559404   17.434607   24.061181 H          1 MOL1         0.0833
      13    C5      20.446081   19.280317   24.228392 C.3        1 MOL1         0.1219
      14    H9      21.342906   19.815278   23.894941 H          1 MOL1         0.0790
      15    C6      19.188396   20.012793   23.693031 C.3        1 MOL1        -0.1760
      16    H10     18.400577   19.295006   23.435028 H          1 MOL1         0.0833
      17    H11     18.762445   20.622477   24.500972 H          1 MOL1         0.0833
      18    C7      19.460404   20.967798   22.500503 C.3        1 MOL1        -0.1684
      19    H12     20.233767   21.694591   22.784478 H          1 MOL1         0.0833
      20    H13     18.549650   21.558230   22.330796 H          1 MOL1         0.0833
      21    C8      19.848349   20.303156   21.153306 C.3        1 MOL1        -0.1684
      22    H14     19.860559   21.098712   20.395698 H          1 MOL1         0.0833
      23    H15     19.066567   19.607072   20.823294 H          1 MOL1         0.0833
      24    O1      20.421528   19.315762   25.650691 O.3        1 MOL1        -0.5508
      25    H16     20.428072   20.261240   25.908582 H          1 MOL1         0.3780
@<TRIPOS>BOND
    1     1     2    1
    2     1     3    1
    3     1     4    1
    4     4     5    1
    5     4     6    1
    6     4     7    1
    7     7     8    1
    8     7     9    1
    9     7    10    1
   10    10    11    1
   11    10    12    1
   12    10    13    1
   13    13    14    1
   14    13    15    1
   15    15    16    1
   16    15    17    1
   17    15    18    1
   18    18    19    1
   19    18    20    1
   20     1    21    1
   21    18    21    1
   22    21    22    1
   23    21    23    1
   24    13    24    1
   25    24    25    1
@<TRIPOS>SUBSTRUCTURE
       1 MOL1            1 RESIDUE      1      MOL     
@<SCITEGIC>MOL_PROPERTY
VM2 Rank
SciTegic.value.IntegerValue
4

@<SCITEGIC>MOL_PROPERTY
Conf_Id
SciTegic.value.IntegerValue
1289

@<SCITEGIC>MOL_PROPERTY
Probability
SciTegic.value.DoubleValue
4.24

@<SCITEGIC>MOL_PROPERTY
Sum Probability
SciTegic.value.DoubleValue
17.44

@<SCITEGIC>MOL_PROPERTY
Delta G
SciTegic.value.DoubleValue
0.051

@<SCITEGIC>MOL_PROPERTY
G
SciTegic.value.DoubleValue
62.126

@<SCITEGIC>MOL_PROPERTY
E
SciTegic.value.DoubleValue
29.319

@<SCITEGIC>MOL_PROPERTY
-TS
SciTegic.value.DoubleValue
32.807

@<SCITEGIC>MOL_PROPERTY
U+W
SciTegic.value.DoubleValue
8.752

@<SCITEGIC>MOL_PROPERTY
U
SciTegic.value.DoubleValue
10.865

@<SCITEGIC>MOL_PROPERTY
W
SciTegic.value.DoubleValue
-2.113

@<SCITEGIC>MOL_PROPERTY
W(PB)
SciTegic.value.DoubleValue
-4.265

@<SCITEGIC>MOL_PROPERTY
W(SA)
SciTegic.value.DoubleValue
2.152

@<SCITEGIC>MOL_PROPERTY
Valence
SciTegic.value.DoubleValue
16.387

@<SCITEGIC>MOL_PROPERTY
Coulomb
SciTegic.value.DoubleValue
-8.479

@<SCITEGIC>MOL_PROPERTY
VdW
SciTegic.value.DoubleValue
2.957

@<SCITEGIC>MOL_PROPERTY
VdW6
SciTegic.value.DoubleValue
-12.577

@<SCITEGIC>MOL_PROPERTY
VdW12
SciTegic.value.DoubleValue
15.534

@<SCITEGIC>MOL_PROPERTY
Bond
SciTegic.value.DoubleValue
0.441

@<SCITEGIC>MOL_PROPERTY
Angle
SciTegic.value.DoubleValue
5.030

@<SCITEGIC>MOL_PROPERTY
Pdih
SciTegic.value.DoubleValue
10.916

@<SCITEGIC>MOL_PROPERTY
Idih
SciTegic.value.DoubleValue
0.000

@<SCITEGIC>MOL_PROPERTY
Tether
SciTegic.value.DoubleValue
0.000

@<TRIPOS>MOLECULE
guest-s17_vm2.mol2 : vm2 ligand conformer 5
          25          25           1
SMALL
USER_CHARGES
 
@<TRIPOS>ATOM
       1    C1      20.755818   19.241491   20.800561 C.3        1 MOL1        -0.1684
       2    H1      20.701828   19.067017   19.717258 H          1 MOL1         0.0833
       3    H2      21.817456   19.427450   21.008211 H          1 MOL1         0.0833
       4    C2      20.266193   17.950854   21.506579 C.3        1 MOL1        -0.1684
       5    H3      19.204095   18.030598   21.763943 H          1 MOL1         0.0833
       6    H4      20.313648   17.125637   20.782853 H          1 MOL1         0.0833
       7    C3      21.100357   17.525512   22.740623 C.3        1 MOL1        -0.1684
       8    H5      22.042131   17.093623   22.375401 H          1 MOL1         0.0833
       9    H6      20.584884   16.705033   23.257107 H          1 MOL1         0.0833
      10    C4      21.465959   18.639611   23.758515 C.3        1 MOL1        -0.1760
      11    H7      22.104035   18.186184   24.528369 H          1 MOL1         0.0833
      12    H8      22.106863   19.387324   23.279100 H          1 MOL1         0.0833
      13    C5      20.299687   19.346095   24.492402 C.3        1 MOL1         0.1219
      14    H9      20.756087   20.033729   25.218837 H          1 MOL1         0.0790
      15    C6      19.329772   20.186821   23.626044 C.3        1 MOL1        -0.1760
      16    H10     18.553181   19.555618   23.180458 H          1 MOL1         0.0833
      17    H11     18.787354   20.846732   24.315733 H          1 MOL1         0.0833
      18    C7      19.992318   21.075310   22.539592 C.3        1 MOL1        -0.1684
      19    H12     21.029376   21.319644   22.802898 H          1 MOL1         0.0833
      20    H13     19.464117   22.038619   22.533743 H          1 MOL1         0.0833
      21    C8      19.909521   20.506037   21.099409 C.3        1 MOL1        -0.1684
      22    H14     18.859062   20.309499   20.844961 H          1 MOL1         0.0833
      23    H15     20.235914   21.296058   20.409363 H          1 MOL1         0.0833
      24    O1      19.544375   18.371268   25.196276 O.3        1 MOL1        -0.5508
      25    H16     19.250561   17.729681   24.518521 H          1 MOL1         0.3780
@<TRIPOS>BOND
    1     1     2    1
    2     1     3    1
    3     1     4    1
    4     4     5    1
    5     4     6    1
    6     4     7    1
    7     7     8    1
    8     7     9    1
    9     7    10    1
   10    10    11    1
   11    10    12    1
   12    10    13    1
   13    13    14    1
   14    13    15    1
   15    15    16    1
   16    15    17    1
   17    15    18    1
   18    18    19    1
   19    18    20    1
   20     1    21    1
   21    18    21    1
   22    21    22    1
   23    21    23    1
   24    13    24    1
   25    24    25    1
@<TRIPOS>SUBSTRUCTURE
       1 MOL1            1 RESIDUE      1      MOL     
@<SCITEGIC>MOL_PROPERTY
VM2 Rank
SciTegic.value.IntegerValue
5

@<SCITEGIC>MOL_PROPERTY
Conf_Id
SciTegic.value.IntegerValue
1358

@<SCITEGIC>MOL_PROPERTY
Probability
SciTegic.value.DoubleValue
3.77

@<SCITEGIC>MOL_PROPERTY
Sum Probability
SciTegic.value.DoubleValue
21.21

@<SCITEGIC>MOL_PROPERTY
Delta G
SciTegic.value.DoubleValue
0.120

@<SCITEGIC>MOL_PROPERTY
G
SciTegic.value.DoubleValue
62.195

@<SCITEGIC>MOL_PROPERTY
E
SciTegic.value.DoubleValue
29.408

@<SCITEGIC>MOL_PROPERTY
-TS
SciTegic.value.DoubleValue
32.788

@<SCITEGIC>MOL_PROPERTY
U+W
SciTegic.value.DoubleValue
8.840

@<SCITEGIC>MOL_PROPERTY
U
SciTegic.value.DoubleValue
10.304

@<SCITEGIC>MOL_PROPERTY
W
SciTegic.value.DoubleValue
-1.464

@<SCITEGIC>MOL_PROPERTY
W(PB)
SciTegic.value.DoubleValue
-3.587

@<SCITEGIC>MOL_PROPERTY
W(SA)
SciTegic.value.DoubleValue
2.123

@<SCITEGIC>MOL_PROPERTY
Valence
SciTegic.value.DoubleValue
17.199

@<SCITEGIC>MOL_PROPERTY
Coulomb
SciTegic.value.DoubleValue
-9.376

@<SCITEGIC>MOL_PROPERTY
VdW
SciTegic.value.DoubleValue
2.481

@<SCITEGIC>MOL_PROPERTY
VdW6
SciTegic.value.DoubleValue
-13.059

@<SCITEGIC>MOL_PROPERTY
VdW12
SciTegic.value.DoubleValue
15.540

@<SCITEGIC>MOL_PROPERTY
Bond
SciTegic.value.DoubleValue
0.429

@<SCITEGIC>MOL_PROPERTY
Angle
SciTegic.value.DoubleValue
5.594

@<SCITEGIC>MOL_PROPERTY
Pdih
SciTegic.value.DoubleValue
11.176

@<SCITEGIC>MOL_PROPERTY
Idih
SciTegic.value.DoubleValue
0.000

@<SCITEGIC>MOL_PROPERTY
Tether
SciTegic.value.DoubleValue
0.000

@<TRIPOS>MOLECULE
guest-s17_vm2.mol2 : vm2 ligand conformer 6
          25          25           1
SMALL
USER_CHARGES
 
@<TRIPOS>ATOM
       1    C1      20.650085   19.497314   20.800114 C.3        1 MOL1        -0.1684
       2    H1      20.490703   19.576248   19.716016 H          1 MOL1         0.0833
       3    H2      21.526739   20.124507   21.007190 H          1 MOL1         0.0833
       4    C2      20.956984   18.008524   21.106584 C.3        1 MOL1        -0.1684
       5    H3      20.080764   17.396503   20.852614 H          1 MOL1         0.0833
       6    H4      21.750829   17.683881   20.420111 H          1 MOL1         0.0833
       7    C3      21.416997   17.674819   22.549526 C.3        1 MOL1        -0.1684
       8    H5      22.317888   18.243771   22.812601 H          1 MOL1         0.0833
       9    H6      21.733072   16.622635   22.549329 H          1 MOL1         0.0833
      10    C4      20.316162   17.830804   23.632385 C.3        1 MOL1        -0.1760
      11    H7      19.322723   17.718056   23.184698 H          1 MOL1         0.0833
      12    H8      20.404177   16.984475   24.326180 H          1 MOL1         0.0833
      13    C5      20.395074   19.115754   24.493085 C.3        1 MOL1         0.1219
      14    H9      21.203451   18.962043   25.222297 H          1 MOL1         0.0790
      15    C6      20.711484   20.439176   23.753940 C.3        1 MOL1        -0.1760
      16    H10     20.833877   21.215530   24.520561 H          1 MOL1         0.0833
      17    H11     21.695196   20.369325   23.277389 H          1 MOL1         0.0833
      18    C7      19.663614   20.955361   22.730951 C.3        1 MOL1        -0.1684
      19    H12     20.017289   21.927882   22.362214 H          1 MOL1         0.0833
      20    H13     18.715909   21.165775   23.244015 H          1 MOL1         0.0833
      21    C8      19.384911   20.056845   21.500257 C.3        1 MOL1        -0.1684
      22    H14     18.696074   19.245096   21.759509 H          1 MOL1         0.0833
      23    H15     18.831947   20.666189   20.772284 H          1 MOL1         0.0833
      24    O1      19.168687   19.264404   25.193157 O.3        1 MOL1        -0.5508
      25    H16     18.507038   19.501873   24.512615 H          1 MOL1         0.3780
@<TRIPOS>BOND
    1     1     2    1
    2     1     3    1
    3     1     4    1
    4     4     5    1
    5     4     6    1
    6     4     7    1
    7     7     8    1
    8     7     9    1
    9     7    10    1
   10    10    11    1
   11    10    12    1
   12    10    13    1
   13    13    14    1
   14    13    15    1
   15    15    16    1
   16    15    17    1
   17    15    18    1
   18    18    19    1
   19    18    20    1
   20     1    21    1
   21    18    21    1
   22    21    22    1
   23    21    23    1
   24    13    24    1
   25    24    25    1
@<TRIPOS>SUBSTRUCTURE
       1 MOL1            1 RESIDUE      1      MOL     
@<SCITEGIC>MOL_PROPERTY
VM2 Rank
SciTegic.value.IntegerValue
6

@<SCITEGIC>MOL_PROPERTY
Conf_Id
SciTegic.value.IntegerValue
1238

@<SCITEGIC>MOL_PROPERTY
Probability
SciTegic.value.DoubleValue
3.62

@<SCITEGIC>MOL_PROPERTY
Sum Probability
SciTegic.value.DoubleValue
24.84

@<SCITEGIC>MOL_PROPERTY
Delta G
SciTegic.value.DoubleValue
0.144

@<SCITEGIC>MOL_PROPERTY
G
SciTegic.value.DoubleValue
62.220

@<SCITEGIC>MOL_PROPERTY
E
SciTegic.value.DoubleValue
29.432

@<SCITEGIC>MOL_PROPERTY
-TS
SciTegic.value.DoubleValue
32.788

@<SCITEGIC>MOL_PROPERTY
U+W
SciTegic.value.DoubleValue
8.864

@<SCITEGIC>MOL_PROPERTY
U
SciTegic.value.DoubleValue
10.304

@<SCITEGIC>MOL_PROPERTY
W
SciTegic.value.DoubleValue
-1.439

@<SCITEGIC>MOL_PROPERTY
W(PB)
SciTegic.value.DoubleValue
-3.553

@<SCITEGIC>MOL_PROPERTY
W(SA)
SciTegic.value.DoubleValue
2.114

@<SCITEGIC>MOL_PROPERTY
Valence
SciTegic.value.DoubleValue
17.199

@<SCITEGIC>MOL_PROPERTY
Coulomb
SciTegic.value.DoubleValue
-9.376

@<SCITEGIC>MOL_PROPERTY
VdW
SciTegic.value.DoubleValue
2.481

@<SCITEGIC>MOL_PROPERTY
VdW6
SciTegic.value.DoubleValue
-13.059

@<SCITEGIC>MOL_PROPERTY
VdW12
SciTegic.value.DoubleValue
15.540

@<SCITEGIC>MOL_PROPERTY
Bond
SciTegic.value.DoubleValue
0.429

@<SCITEGIC>MOL_PROPERTY
Angle
SciTegic.value.DoubleValue
5.593

@<SCITEGIC>MOL_PROPERTY
Pdih
SciTegic.value.DoubleValue
11.176

@<SCITEGIC>MOL_PROPERTY
Idih
SciTegic.value.DoubleValue
0.000

@<SCITEGIC>MOL_PROPERTY
Tether
SciTegic.value.DoubleValue
0.000

@<TRIPOS>MOLECULE
guest-s17_vm2.mol2 : vm2 ligand conformer 7
          25          25           1
SMALL
USER_CHARGES
 
@<TRIPOS>ATOM
       1    C1      21.242706   19.623401   21.138991 C.3        1 MOL1        -0.1684
       2    H1      21.898222   20.074082   21.892700 H          1 MOL1         0.0833
       3    H2      21.727019   19.859191   20.181432 H          1 MOL1         0.0833
       4    C2      21.231869   18.078503   21.273964 C.3        1 MOL1        -0.1684
       5    H3      20.966179   17.659137   20.293894 H          1 MOL1         0.0833
       6    H4      22.253987   17.731256   21.477147 H          1 MOL1         0.0833
       7    C3      20.264890   17.463969   22.316764 C.3        1 MOL1        -0.1684
       8    H5      20.319472   16.372055   22.209667 H          1 MOL1         0.0833
       9    H6      19.227275   17.714499   22.067972 H          1 MOL1         0.0833
      10    C4      20.562379   17.797443   23.801472 C.3        1 MOL1        -0.1760
      11    H7      19.873626   17.202083   24.415264 H          1 MOL1         0.0833
      12    H8      21.570739   17.442897   24.051654 H          1 MOL1         0.0833
      13    C5      20.445645   19.280870   24.230253 C.3        1 MOL1         0.1219
      14    H9      21.341729   19.821078   23.903521 H          1 MOL1         0.0790
      15    C6      19.189220   20.015110   23.694370 C.3        1 MOL1        -0.1760
      16    H10     18.396606   19.301127   23.440304 H          1 MOL1         0.0833
      17    H11     18.773125   20.632350   24.502139 H          1 MOL1         0.0833
      18    C7      19.461316   20.967557   22.499648 C.3        1 MOL1        -0.1684
      19    H12     20.235758   21.693419   22.783263 H          1 MOL1         0.0833
      20    H13     18.551406   21.559292   22.330103 H          1 MOL1         0.0833
      21    C8      19.848326   20.302240   21.152732 C.3        1 MOL1        -0.1684
      22    H14     19.860947   21.097422   20.394744 H          1 MOL1         0.0833
      23    H15     19.066165   19.606385   20.823150 H          1 MOL1         0.0833
      24    O1      20.417648   19.313909   25.651805 O.3        1 MOL1        -0.5508
      25    H16     19.603268   18.843108   25.923875 H          1 MOL1         0.3780
@<TRIPOS>BOND
    1     1     2    1
    2     1     3    1
    3     1     4    1
    4     4     5    1
    5     4     6    1
    6     4     7    1
    7     7     8    1
    8     7     9    1
    9     7    10    1
   10    10    11    1
   11    10    12    1
   12    10    13    1
   13    13    14    1
   14    13    15    1
   15    15    16    1
   16    15    17    1
   17    15    18    1
   18    18    19    1
   19    18    20    1
   20     1    21    1
   21    18    21    1
   22    21    22    1
   23    21    23    1
   24    13    24    1
   25    24    25    1
@<TRIPOS>SUBSTRUCTURE
       1 MOL1            1 RESIDUE      1      MOL     
@<SCITEGIC>MOL_PROPERTY
VM2 Rank
SciTegic.value.IntegerValue
7

@<SCITEGIC>MOL_PROPERTY
Conf_Id
SciTegic.value.IntegerValue
1319

@<SCITEGIC>MOL_PROPERTY
Probability
SciTegic.value.DoubleValue
3.54

@<SCITEGIC>MOL_PROPERTY
Sum Probability
SciTegic.value.DoubleValue
28.38

@<SCITEGIC>MOL_PROPERTY
Delta G
SciTegic.value.DoubleValue
0.159

@<SCITEGIC>MOL_PROPERTY
G
SciTegic.value.DoubleValue
62.234

@<SCITEGIC>MOL_PROPERTY
E
SciTegic.value.DoubleValue
29.468

@<SCITEGIC>MOL_PROPERTY
-TS
SciTegic.value.DoubleValue
32.766

@<SCITEGIC>MOL_PROPERTY
U+W
SciTegic.value.DoubleValue
8.900

@<SCITEGIC>MOL_PROPERTY
U
SciTegic.value.DoubleValue
10.935

@<SCITEGIC>MOL_PROPERTY
W
SciTegic.value.DoubleValue
-2.035

@<SCITEGIC>MOL_PROPERTY
W(PB)
SciTegic.value.DoubleValue
-4.170

@<SCITEGIC>MOL_PROPERTY
W(SA)
SciTegic.value.DoubleValue
2.136

@<SCITEGIC>MOL_PROPERTY
Valence
SciTegic.value.DoubleValue
16.757

@<SCITEGIC>MOL_PROPERTY
Coulomb
SciTegic.value.DoubleValue
-8.731

@<SCITEGIC>MOL_PROPERTY
VdW
SciTegic.value.DoubleValue
2.908

@<SCITEGIC>MOL_PROPERTY
VdW6
SciTegic.value.DoubleValue
-12.597

@<SCITEGIC>MOL_PROPERTY
VdW12
SciTegic.value.DoubleValue
15.505

@<SCITEGIC>MOL_PROPERTY
Bond
SciTegic.value.DoubleValue
0.434

@<SCITEGIC>MOL_PROPERTY
Angle
SciTegic.value.DoubleValue
5.070

@<SCITEGIC>MOL_PROPERTY
Pdih
SciTegic.value.DoubleValue
11.254

@<SCITEGIC>MOL_PROPERTY
Idih
SciTegic.value.DoubleValue
0.000

@<SCITEGIC>MOL_PROPERTY
Tether
SciTegic.value.DoubleValue
0.000

@<TRIPOS>MOLECULE
guest-s17_vm2.mol2 : vm2 ligand conformer 8
          25          25           1
SMALL
USER_CHARGES
 
@<TRIPOS>ATOM
       1    C1      21.264786   19.570299   21.139191 C.3        1 MOL1        -0.1684
       2    H1      21.775883   19.741633   20.181851 H          1 MOL1         0.0833
       3    H2      22.045342   19.719200   21.893811 H          1 MOL1         0.0833
       4    C2      20.759523   18.104141   21.159009 C.3        1 MOL1        -0.1684
       5    H3      19.715118   18.040990   20.827583 H          1 MOL1         0.0833
       6    H4      21.332554   17.547400   20.404892 H          1 MOL1         0.0833
       7    C3      20.953908   17.366686   22.509927 C.3        1 MOL1        -0.1684
       8    H5      22.014178   17.402952   22.795560 H          1 MOL1         0.0833
       9    H6      20.729802   16.303937   22.345085 H          1 MOL1         0.0833
      10    C4      20.085321   17.853135   23.700504 C.3        1 MOL1        -0.1760
      11    H7      19.020553   17.795790   23.444503 H          1 MOL1         0.0833
      12    H8      20.226217   17.126448   24.512098 H          1 MOL1         0.0833
      13    C5      20.452788   19.263506   24.230317 C.3        1 MOL1         0.1219
      14    H9      21.468957   19.514047   23.904473 H          1 MOL1         0.0790
      15    C6      19.486752   20.392439   23.794050 C.3        1 MOL1        -0.1760
      16    H10     18.577532   20.328978   24.406314 H          1 MOL1         0.0833
      17    H11     19.948122   21.357583   24.040465 H          1 MOL1         0.0833
      18    C7      19.043599   20.410438   22.308334 C.3        1 MOL1        -0.1684
      19    H12     18.309925   21.220241   22.195801 H          1 MOL1         0.0833
      20    H13     18.487989   19.498109   22.062849 H          1 MOL1         0.0833
      21    C8      20.163892   20.655121   21.266601 C.3        1 MOL1        -0.1684
      22    H14     19.681429   20.758728   20.285025 H          1 MOL1         0.0833
      23    H15     20.640189   21.624640   21.466005 H          1 MOL1         0.0833
      24    O1      20.453430   19.227235   25.652066 O.3        1 MOL1        -0.5508
      25    H16     19.544275   18.984980   25.923428 H          1 MOL1         0.3780
@<TRIPOS>BOND
    1     1     2    1
    2     1     3    1
    3     1     4    1
    4     4     5    1
    5     4     6    1
    6     4     7    1
    7     7     8    1
    8     7     9    1
    9     7    10    1
   10    10    11    1
   11    10    12    1
   12    10    13    1
   13    13    14    1
   14    13    15    1
   15    15    16    1
   16    15    17    1
   17    15    18    1
   18    18    19    1
   19    18    20    1
   20     1    21    1
   21    18    21    1
   22    21    22    1
   23    21    23    1
   24    13    24    1
   25    24    25    1
@<TRIPOS>SUBSTRUCTURE
       1 MOL1            1 RESIDUE      1      MOL     
@<SCITEGIC>MOL_PROPERTY
VM2 Rank
SciTegic.value.IntegerValue
8

@<SCITEGIC>MOL_PROPERTY
Conf_Id
SciTegic.value.IntegerValue
1088

@<SCITEGIC>MOL_PROPERTY
Probability
SciTegic.value.DoubleValue
3.45

@<SCITEGIC>MOL_PROPERTY
Sum Probability
SciTegic.value.DoubleValue
31.83

@<SCITEGIC>MOL_PROPERTY
Delta G
SciTegic.value.DoubleValue
0.173

@<SCITEGIC>MOL_PROPERTY
G
SciTegic.value.DoubleValue
62.249

@<SCITEGIC>MOL_PROPERTY
E
SciTegic.value.DoubleValue
29.482

@<SCITEGIC>MOL_PROPERTY
-TS
SciTegic.value.DoubleValue
32.767

@<SCITEGIC>MOL_PROPERTY
U+W
SciTegic.value.DoubleValue
8.915

@<SCITEGIC>MOL_PROPERTY
U
SciTegic.value.DoubleValue
10.935

@<SCITEGIC>MOL_PROPERTY
W
SciTegic.value.DoubleValue
-2.020

@<SCITEGIC>MOL_PROPERTY
W(PB)
SciTegic.value.DoubleValue
-4.135

@<SCITEGIC>MOL_PROPERTY
W(SA)
SciTegic.value.DoubleValue
2.115

@<SCITEGIC>MOL_PROPERTY
Valence
SciTegic.value.DoubleValue
16.757

@<SCITEGIC>MOL_PROPERTY
Coulomb
SciTegic.value.DoubleValue
-8.731

@<SCITEGIC>MOL_PROPERTY
VdW
SciTegic.value.DoubleValue
2.908

@<SCITEGIC>MOL_PROPERTY
VdW6
SciTegic.value.DoubleValue
-12.597

@<SCITEGIC>MOL_PROPERTY
VdW12
SciTegic.value.DoubleValue
15.506

@<SCITEGIC>MOL_PROPERTY
Bond
SciTegic.value.DoubleValue
0.434

@<SCITEGIC>MOL_PROPERTY
Angle
SciTegic.value.DoubleValue
5.069

@<SCITEGIC>MOL_PROPERTY
Pdih
SciTegic.value.DoubleValue
11.254

@<SCITEGIC>MOL_PROPERTY
Idih
SciTegic.value.DoubleValue
0.000

@<SCITEGIC>MOL_PROPERTY
Tether
SciTegic.value.DoubleValue
0.000

@<TRIPOS>MOLECULE
guest-s17_vm2.mol2 : vm2 ligand conformer 9
          25          25           1
SMALL
USER_CHARGES
 
@<TRIPOS>ATOM
       1    C1      20.080288   19.169743   20.750417 C.3        1 MOL1        -0.1684
       2    H1      19.010739   18.995263   20.924161 H          1 MOL1         0.0833
       3    H2      20.184928   19.240705   19.659123 H          1 MOL1         0.0833
       4    C2      20.918533   17.947067   21.206909 C.3        1 MOL1        -0.1684
       5    H3      20.629977   17.092478   20.579820 H          1 MOL1         0.0833
       6    H4      21.978833   18.129308   20.984700 H          1 MOL1         0.0833
       7    C3      20.770588   17.514339   22.688782 C.3        1 MOL1        -0.1684
       8    H5      21.306510   16.561784   22.799953 H          1 MOL1         0.0833
       9    H6      19.723555   17.282033   22.919958 H          1 MOL1         0.0833
      10    C4      21.372159   18.510989   23.717267 C.3        1 MOL1        -0.1760
      11    H7      21.909679   17.933734   24.481718 H          1 MOL1         0.0833
      12    H8      22.151284   19.119635   23.246537 H          1 MOL1         0.0833
      13    C5      20.359524   19.424430   24.452345 C.3        1 MOL1         0.1219
      14    H9      20.920749   20.248590   24.915291 H          1 MOL1         0.0790
      15    C6      19.224468   20.035354   23.596822 C.3        1 MOL1        -0.1760
      16    H10     18.614186   19.244187   23.148389 H          1 MOL1         0.0833
      17    H11     18.545876   20.559237   24.283076 H          1 MOL1         0.0833
      18    C7      19.655490   21.057889   22.514110 C.3        1 MOL1        -0.1684
      19    H12     20.173047   21.899404   22.994318 H          1 MOL1         0.0833
      20    H13     18.740250   21.481767   22.078708 H          1 MOL1         0.0833
      21    C8      20.531247   20.526405   21.350926 C.3        1 MOL1        -0.1684
      22    H14     20.501642   21.280735   20.552721 H          1 MOL1         0.0833
      23    H15     21.585138   20.483802   21.648273 H          1 MOL1         0.0833
      24    O1      19.751703   18.656783   25.482422 O.3        1 MOL1        -0.5508
      25    H16     19.354035   17.880036   25.039562 H          1 MOL1         0.3780
@<TRIPOS>BOND
    1     1     2    1
    2     1     3    1
    3     1     4    1
    4     4     5    1
    5     4     6    1
    6     4     7    1
    7     7     8    1
    8     7     9    1
    9     7    10    1
   10    10    11    1
   11    10    12    1
   12    10    13    1
   13    13    14    1
   14    13    15    1
   15    15    16    1
   16    15    17    1
   17    15    18    1
   18    18    19    1
   19    18    20    1
   20     1    21    1
   21    18    21    1
   22    21    22    1
   23    21    23    1
   24    13    24    1
   25    24    25    1
@<TRIPOS>SUBSTRUCTURE
       1 MOL1            1 RESIDUE      1      MOL     
@<SCITEGIC>MOL_PROPERTY
VM2 Rank
SciTegic.value.IntegerValue
9

@<SCITEGIC>MOL_PROPERTY
Conf_Id
SciTegic.value.IntegerValue
1973

@<SCITEGIC>MOL_PROPERTY
Probability
SciTegic.value.DoubleValue
3.28

@<SCITEGIC>MOL_PROPERTY
Sum Probability
SciTegic.value.DoubleValue
35.10

@<SCITEGIC>MOL_PROPERTY
Delta G
SciTegic.value.DoubleValue
0.204

@<SCITEGIC>MOL_PROPERTY
G
SciTegic.value.DoubleValue
62.280

@<SCITEGIC>MOL_PROPERTY
E
SciTegic.value.DoubleValue
29.544

@<SCITEGIC>MOL_PROPERTY
-TS
SciTegic.value.DoubleValue
32.736

@<SCITEGIC>MOL_PROPERTY
U+W
SciTegic.value.DoubleValue
8.976

@<SCITEGIC>MOL_PROPERTY
U
SciTegic.value.DoubleValue
10.541

@<SCITEGIC>MOL_PROPERTY
W
SciTegic.value.DoubleValue
-1.565

@<SCITEGIC>MOL_PROPERTY
W(PB)
SciTegic.value.DoubleValue
-3.702

@<SCITEGIC>MOL_PROPERTY
W(SA)
SciTegic.value.DoubleValue
2.137

@<SCITEGIC>MOL_PROPERTY
Valence
SciTegic.value.DoubleValue
17.202

@<SCITEGIC>MOL_PROPERTY
Coulomb
SciTegic.value.DoubleValue
-9.327

@<SCITEGIC>MOL_PROPERTY
VdW
SciTegic.value.DoubleValue
2.666

@<SCITEGIC>MOL_PROPERTY
VdW6
SciTegic.value.DoubleValue
-12.816

@<SCITEGIC>MOL_PROPERTY
VdW12
SciTegic.value.DoubleValue
15.482

@<SCITEGIC>MOL_PROPERTY
Bond
SciTegic.value.DoubleValue
0.428

@<SCITEGIC>MOL_PROPERTY
Angle
SciTegic.value.DoubleValue
5.357

@<SCITEGIC>MOL_PROPERTY
Pdih
SciTegic.value.DoubleValue
11.417

@<SCITEGIC>MOL_PROPERTY
Idih
SciTegic.value.DoubleValue
0.000

@<SCITEGIC>MOL_PROPERTY
Tether
SciTegic.value.DoubleValue
0.000

@<TRIPOS>MOLECULE
guest-s17_vm2.mol2 : vm2 ligand conformer 10
          25          25           1
SMALL
USER_CHARGES
 
@<TRIPOS>ATOM
       1    C1      20.153069   19.066512   20.748473 C.3        1 MOL1        -0.1684
       2    H1      19.296371   18.400145   20.911535 H          1 MOL1         0.0833
       3    H2      20.291316   19.093224   19.658940 H          1 MOL1         0.0833
       4    C2      21.446751   18.477380   21.368000 C.3        1 MOL1        -0.1684
       5    H3      21.991403   17.942031   20.578206 H          1 MOL1         0.0833
       6    H4      22.126945   19.280488   21.673408 H          1 MOL1         0.0833
       7    C3      21.226097   17.475620   22.529986 C.3        1 MOL1        -0.1684
       8    H5      22.188540   17.284947   23.023908 H          1 MOL1         0.0833
       9    H6      20.921796   16.515164   22.091997 H          1 MOL1         0.0833
      10    C4      20.167893   17.855468   23.597479 C.3        1 MOL1        -0.1760
      11    H7      19.178998   17.943928   23.135153 H          1 MOL1         0.0833
      12    H8      20.082150   17.002781   24.284108 H          1 MOL1         0.0833
      13    C5      20.478348   19.105047   24.455191 C.3        1 MOL1         0.1219
      14    H9      21.457965   18.958209   24.931974 H          1 MOL1         0.0790
      15    C6      20.505604   20.467401   23.718037 C.3        1 MOL1        -0.1760
      16    H10     20.436269   21.255308   24.480223 H          1 MOL1         0.0833
      17    H11     21.487899   20.625250   23.260597 H          1 MOL1         0.0833
      18    C7      19.379833   20.700743   22.673445 C.3        1 MOL1        -0.1684
      19    H12     19.042985   21.741179   22.778134 H          1 MOL1         0.0833
      20    H13     18.495188   20.090266   22.893459 H          1 MOL1         0.0833
      21    C8      19.818454   20.512915   21.197837 C.3        1 MOL1        -0.1684
      22    H14     19.003945   20.880292   20.558749 H          1 MOL1         0.0833
      23    H15     20.675241   21.167139   20.986339 H          1 MOL1         0.0833
      24    O1      19.487950   19.181914   25.471551 O.3        1 MOL1        -0.5508
      25    H16     18.653902   19.416624   25.016715 H          1 MOL1         0.3780
@<TRIPOS>BOND
    1     1     2    1
    2     1     3    1
    3     1     4    1
    4     4     5    1
    5     4     6    1
    6     4     7    1
    7     7     8    1
    8     7     9    1
    9     7    10    1
   10    10    11    1
   11    10    12    1
   12    10    13    1
   13    13    14    1
   14    13    15    1
   15    15    16    1
   16    15    17    1
   17    15    18    1
   18    18    19    1
   19    18    20    1
   20     1    21    1
   21    18    21    1
   22    21    22    1
   23    21    23    1
   24    13    24    1
   25    24    25    1
@<TRIPOS>SUBSTRUCTURE
       1 MOL1            1 RESIDUE      1      MOL     
@<SCITEGIC>MOL_PROPERTY
VM2 Rank
SciTegic.value.IntegerValue
10

@<SCITEGIC>MOL_PROPERTY
Conf_Id
SciTegic.value.IntegerValue
1940

@<SCITEGIC>MOL_PROPERTY
Probability
SciTegic.value.DoubleValue
3.12

@<SCITEGIC>MOL_PROPERTY
Sum Probability
SciTegic.value.DoubleValue
38.22

@<SCITEGIC>MOL_PROPERTY
Delta G
SciTegic.value.DoubleValue
0.234

@<SCITEGIC>MOL_PROPERTY
G
SciTegic.value.DoubleValue
62.309

@<SCITEGIC>MOL_PROPERTY
E
SciTegic.value.DoubleValue
29.573

@<SCITEGIC>MOL_PROPERTY
-TS
SciTegic.value.DoubleValue
32.736

@<SCITEGIC>MOL_PROPERTY
U+W
SciTegic.value.DoubleValue
9.006

@<SCITEGIC>MOL_PROPERTY
U
SciTegic.value.DoubleValue
10.541

@<SCITEGIC>MOL_PROPERTY
W
SciTegic.value.DoubleValue
-1.536

@<SCITEGIC>MOL_PROPERTY
W(PB)
SciTegic.value.DoubleValue
-3.659

@<SCITEGIC>MOL_PROPERTY
W(SA)
SciTegic.value.DoubleValue
2.123

@<SCITEGIC>MOL_PROPERTY
Valence
SciTegic.value.DoubleValue
17.202

@<SCITEGIC>MOL_PROPERTY
Coulomb
SciTegic.value.DoubleValue
-9.327

@<SCITEGIC>MOL_PROPERTY
VdW
SciTegic.value.DoubleValue
2.666

@<SCITEGIC>MOL_PROPERTY
VdW6
SciTegic.value.DoubleValue
-12.816

@<SCITEGIC>MOL_PROPERTY
VdW12
SciTegic.value.DoubleValue
15.482

@<SCITEGIC>MOL_PROPERTY
Bond
SciTegic.value.DoubleValue
0.428

@<SCITEGIC>MOL_PROPERTY
Angle
SciTegic.value.DoubleValue
5.357

@<SCITEGIC>MOL_PROPERTY
Pdih
SciTegic.value.DoubleValue
11.417

@<SCITEGIC>MOL_PROPERTY
Idih
SciTegic.value.DoubleValue
0.000

@<SCITEGIC>MOL_PROPERTY
Tether
SciTegic.value.DoubleValue
0.000

@<TRIPOS>MOLECULE
guest-s17_vm2.mol2 : vm2 ligand conformer 11
          25          25           1
SMALL
USER_CHARGES
 
@<TRIPOS>ATOM
       1    C1      20.885114   19.438537   20.677196 C.3        1 MOL1        -0.1684
       2    H1      20.083334   19.098508   20.007558 H          1 MOL1         0.0833
       3    H2      21.695964   19.774197   20.016353 H          1 MOL1         0.0833
       4    C2      21.414633   18.231717   21.495584 C.3        1 MOL1        -0.1684
       5    H3      21.847119   17.522487   20.776547 H          1 MOL1         0.0833
       6    H4      22.252244   18.533565   22.137493 H          1 MOL1         0.0833
       7    C3      20.331709   17.472213   22.304819 C.3        1 MOL1        -0.1684
       8    H5      20.519056   16.394455   22.203118 H          1 MOL1         0.0833
       9    H6      19.342487   17.622288   21.857647 H          1 MOL1         0.0833
      10    C4      20.299600   17.791418   23.822253 C.3        1 MOL1        -0.1760
      11    H7      19.373198   17.387625   24.251475 H          1 MOL1         0.0833
      12    H8      21.118620   17.232232   24.293282 H          1 MOL1         0.0833
      13    C5      20.446667   19.275698   24.233379 C.3        1 MOL1         0.1219
      14    H9      21.387656   19.670744   23.831227 H          1 MOL1         0.0790
      15    C6      19.285562   20.204237   23.806732 C.3        1 MOL1        -0.1760
      16    H10     18.347061   19.829713   24.235658 H          1 MOL1         0.0833
      17    H11     19.460256   21.181859   24.275234 H          1 MOL1         0.0833
      18    C7      19.088013   20.440554   22.286342 C.3        1 MOL1        -0.1684
      19    H12     18.453864   21.330829   22.175902 H          1 MOL1         0.0833
      20    H13     18.501087   19.628449   21.842455 H          1 MOL1         0.0833
      21    C8      20.392687   20.670918   21.480597 C.3        1 MOL1        -0.1684
      22    H14     21.192137   21.063022   22.122424 H          1 MOL1         0.0833
      23    H15     20.193929   21.469104   20.752288 H          1 MOL1         0.0833
      24    O1      20.520014   19.317708   25.653098 O.3        1 MOL1        -0.5508
      25    H16     21.292953   18.774369   25.912767 H          1 MOL1         0.3780
@<TRIPOS>BOND
    1     1     2    1
    2     1     3    1
    3     1     4    1
    4     4     5    1
    5     4     6    1
    6     4     7    1
    7     7     8    1
    8     7     9    1
    9     7    10    1
   10    10    11    1
   11    10    12    1
   12    10    13    1
   13    13    14    1
   14    13    15    1
   15    15    16    1
   16    15    17    1
   17    15    18    1
   18    18    19    1
   19    18    20    1
   20     1    21    1
   21    18    21    1
   22    21    22    1
   23    21    23    1
   24    13    24    1
   25    24    25    1
@<TRIPOS>SUBSTRUCTURE
       1 MOL1            1 RESIDUE      1      MOL     
@<SCITEGIC>MOL_PROPERTY
VM2 Rank
SciTegic.value.IntegerValue
11

@<SCITEGIC>MOL_PROPERTY
Conf_Id
SciTegic.value.IntegerValue
1354

@<SCITEGIC>MOL_PROPERTY
Probability
SciTegic.value.DoubleValue
3.04

@<SCITEGIC>MOL_PROPERTY
Sum Probability
SciTegic.value.DoubleValue
41.26

@<SCITEGIC>MOL_PROPERTY
Delta G
SciTegic.value.DoubleValue
0.248

@<SCITEGIC>MOL_PROPERTY
G
SciTegic.value.DoubleValue
62.324

@<SCITEGIC>MOL_PROPERTY
E
SciTegic.value.DoubleValue
29.662

@<SCITEGIC>MOL_PROPERTY
-TS
SciTegic.value.DoubleValue
32.661

@<SCITEGIC>MOL_PROPERTY
U+W
SciTegic.value.DoubleValue
9.095

@<SCITEGIC>MOL_PROPERTY
U
SciTegic.value.DoubleValue
11.209

@<SCITEGIC>MOL_PROPERTY
W
SciTegic.value.DoubleValue
-2.114

@<SCITEGIC>MOL_PROPERTY
W(PB)
SciTegic.value.DoubleValue
-4.242

@<SCITEGIC>MOL_PROPERTY
W(SA)
SciTegic.value.DoubleValue
2.128

@<SCITEGIC>MOL_PROPERTY
Valence
SciTegic.value.DoubleValue
16.993

@<SCITEGIC>MOL_PROPERTY
Coulomb
SciTegic.value.DoubleValue
-8.421

@<SCITEGIC>MOL_PROPERTY
VdW
SciTegic.value.DoubleValue
2.637

@<SCITEGIC>MOL_PROPERTY
VdW6
SciTegic.value.DoubleValue
-12.542

@<SCITEGIC>MOL_PROPERTY
VdW12
SciTegic.value.DoubleValue
15.179

@<SCITEGIC>MOL_PROPERTY
Bond
SciTegic.value.DoubleValue
0.410

@<SCITEGIC>MOL_PROPERTY
Angle
SciTegic.value.DoubleValue
5.145

@<SCITEGIC>MOL_PROPERTY
Pdih
SciTegic.value.DoubleValue
11.438

@<SCITEGIC>MOL_PROPERTY
Idih
SciTegic.value.DoubleValue
0.000

@<SCITEGIC>MOL_PROPERTY
Tether
SciTegic.value.DoubleValue
0.000

@<TRIPOS>MOLECULE
guest-s17_vm2.mol2 : vm2 ligand conformer 12
          25          25           1
SMALL
USER_CHARGES
 
@<TRIPOS>ATOM
       1    C1      20.885231   19.438243   20.677193 C.3        1 MOL1        -0.1684
       2    H1      20.083726   19.097514   20.007580 H          1 MOL1         0.0833
       3    H2      21.695813   19.774500   20.016324 H          1 MOL1         0.0833
       4    C2      21.415730   18.231861   21.495674 C.3        1 MOL1        -0.1684
       5    H3      21.849037   17.523106   20.776680 H          1 MOL1         0.0833
       6    H4      22.252860   18.534144   22.138049 H          1 MOL1         0.0833
       7    C3      20.333546   17.471066   22.304706 C.3        1 MOL1        -0.1684
       8    H5      20.524702   16.393692   22.206426 H          1 MOL1         0.0833
       9    H6      19.344869   17.616784   21.854910 H          1 MOL1         0.0833
      10    C4      20.296722   17.793563   23.821641 C.3        1 MOL1        -0.1760
      11    H7      19.369989   17.390998   24.250755 H          1 MOL1         0.0833
      12    H8      21.114492   17.238085   24.299606 H          1 MOL1         0.0833
      13    C5      20.446122   19.276981   24.233380 C.3        1 MOL1         0.1219
      14    H9      21.389141   19.667205   23.831275 H          1 MOL1         0.0790
      15    C6      19.286052   20.207811   23.807305 C.3        1 MOL1        -0.1760
      16    H10     18.346893   19.834405   24.236315 H          1 MOL1         0.0833
      17    H11     19.459016   21.188846   24.268828 H          1 MOL1         0.0833
      18    C7      19.087564   20.438454   22.286471 C.3        1 MOL1        -0.1684
      19    H12     18.450494   21.326251   22.172620 H          1 MOL1         0.0833
      20    H13     18.503349   19.622938   21.845256 H          1 MOL1         0.0833
      21    C8      20.391836   20.670238   21.480504 C.3        1 MOL1        -0.1684
      22    H14     21.191324   21.062984   22.121849 H          1 MOL1         0.0833
      23    H15     20.192168   21.468169   20.752147 H          1 MOL1         0.0833
      24    O1      20.521196   19.314783   25.653127 O.3        1 MOL1        -0.5508
      25    H16     20.674050   20.249632   25.903674 H          1 MOL1         0.3780
@<TRIPOS>BOND
    1     1     2    1
    2     1     3    1
    3     1     4    1
    4     4     5    1
    5     4     6    1
    6     4     7    1
    7     7     8    1
    8     7     9    1
    9     7    10    1
   10    10    11    1
   11    10    12    1
   12    10    13    1
   13    13    14    1
   14    13    15    1
   15    15    16    1
   16    15    17    1
   17    15    18    1
   18    18    19    1
   19    18    20    1
   20     1    21    1
   21    18    21    1
   22    21    22    1
   23    21    23    1
   24    13    24    1
   25    24    25    1
@<TRIPOS>SUBSTRUCTURE
       1 MOL1            1 RESIDUE      1      MOL     
@<SCITEGIC>MOL_PROPERTY
VM2 Rank
SciTegic.value.IntegerValue
12

@<SCITEGIC>MOL_PROPERTY
Conf_Id
SciTegic.value.IntegerValue
337

@<SCITEGIC>MOL_PROPERTY
Probability
SciTegic.value.DoubleValue
2.99

@<SCITEGIC>MOL_PROPERTY
Sum Probability
SciTegic.value.DoubleValue
44.26

@<SCITEGIC>MOL_PROPERTY
Delta G
SciTegic.value.DoubleValue
0.258

@<SCITEGIC>MOL_PROPERTY
G
SciTegic.value.DoubleValue
62.334

@<SCITEGIC>MOL_PROPERTY
E
SciTegic.value.DoubleValue
29.672

@<SCITEGIC>MOL_PROPERTY
-TS
SciTegic.value.DoubleValue
32.661

@<SCITEGIC>MOL_PROPERTY
U+W
SciTegic.value.DoubleValue
9.105

@<SCITEGIC>MOL_PROPERTY
U
SciTegic.value.DoubleValue
11.209

@<SCITEGIC>MOL_PROPERTY
W
SciTegic.value.DoubleValue
-2.104

@<SCITEGIC>MOL_PROPERTY
W(PB)
SciTegic.value.DoubleValue
-4.233

@<SCITEGIC>MOL_PROPERTY
W(SA)
SciTegic.value.DoubleValue
2.129

@<SCITEGIC>MOL_PROPERTY
Valence
SciTegic.value.DoubleValue
16.993

@<SCITEGIC>MOL_PROPERTY
Coulomb
SciTegic.value.DoubleValue
-8.421

@<SCITEGIC>MOL_PROPERTY
VdW
SciTegic.value.DoubleValue
2.637

@<SCITEGIC>MOL_PROPERTY
VdW6
SciTegic.value.DoubleValue
-12.542

@<SCITEGIC>MOL_PROPERTY
VdW12
SciTegic.value.DoubleValue
15.179

@<SCITEGIC>MOL_PROPERTY
Bond
SciTegic.value.DoubleValue
0.410

@<SCITEGIC>MOL_PROPERTY
Angle
SciTegic.value.DoubleValue
5.145

@<SCITEGIC>MOL_PROPERTY
Pdih
SciTegic.value.DoubleValue
11.438

@<SCITEGIC>MOL_PROPERTY
Idih
SciTegic.value.DoubleValue
0.000

@<SCITEGIC>MOL_PROPERTY
Tether
SciTegic.value.DoubleValue
0.000

@<TRIPOS>MOLECULE
guest-s17_vm2.mol2 : vm2 ligand conformer 13
          25          25           1
SMALL
USER_CHARGES
 
@<TRIPOS>ATOM
       1    C1      20.559063   19.223404   20.605388 C.3        1 MOL1        -0.1684
       2    H1      20.076339   18.473884   19.963749 H          1 MOL1         0.0833
       3    H2      21.134074   19.867842   19.926433 H          1 MOL1         0.0833
       4    C2      21.572624   18.518430   21.541533 C.3        1 MOL1        -0.1684
       5    H3      22.321976   18.031714   20.902470 H          1 MOL1         0.0833
       6    H4      22.140187   19.259841   22.115408 H          1 MOL1         0.0833
       7    C3      20.993126   17.430152   22.479991 C.3        1 MOL1        -0.1684
       8    H5      21.838632   16.947243   22.988777 H          1 MOL1         0.0833
       9    H6      20.521117   16.643900   21.875369 H          1 MOL1         0.0833
      10    C4      19.989988   17.901044   23.564770 C.3        1 MOL1        -0.1760
      11    H7      18.990500   18.012497   23.132479 H          1 MOL1         0.0833
      12    H8      19.884151   17.079638   24.285902 H          1 MOL1         0.0833
      13    C5      20.394961   19.197419   24.313193 C.3        1 MOL1         0.1219
      14    H9      21.472820   19.372845   24.196571 H          1 MOL1         0.0790
      15    C6      19.623637   20.459867   23.854181 C.3        1 MOL1        -0.1760
      16    H10     18.544852   20.274772   23.939053 H          1 MOL1         0.0833
      17    H11     19.843429   21.262649   24.570437 H          1 MOL1         0.0833
      18    C7      19.944658   21.000349   22.433945 C.3        1 MOL1        -0.1684
      19    H12     21.013277   21.231836   22.337830 H          1 MOL1         0.0833
      20    H13     19.431982   21.967006   22.335749 H          1 MOL1         0.0833
      21    C8      19.462899   20.096934   21.269215 C.3        1 MOL1        -0.1684
      22    H14     19.048270   20.744406   20.484425 H          1 MOL1         0.0833
      23    H15     18.615818   19.478687   21.587063 H          1 MOL1         0.0833
      24    O1      20.123042   19.015401   25.697784 O.3        1 MOL1        -0.5508
      25    H16     20.668771   18.257023   25.993688 H          1 MOL1         0.3780
@<TRIPOS>BOND
    1     1     2    1
    2     1     3    1
    3     1     4    1
    4     4     5    1
    5     4     6    1
    6     4     7    1
    7     7     8    1
    8     7     9    1
    9     7    10    1
   10    10    11    1
   11    10    12    1
   12    10    13    1
   13    13    14    1
   14    13    15    1
   15    15    16    1
   16    15    17    1
   17    15    18    1
   18    18    19    1
   19    18    20    1
   20     1    21    1
   21    18    21    1
   22    21    22    1
   23    21    23    1
   24    13    24    1
   25    24    25    1
@<TRIPOS>SUBSTRUCTURE
       1 MOL1            1 RESIDUE      1      MOL     
@<SCITEGIC>MOL_PROPERTY
VM2 Rank
SciTegic.value.IntegerValue
13

@<SCITEGIC>MOL_PROPERTY
Conf_Id
SciTegic.value.IntegerValue
584

@<SCITEGIC>MOL_PROPERTY
Probability
SciTegic.value.DoubleValue
2.61

@<SCITEGIC>MOL_PROPERTY
Sum Probability
SciTegic.value.DoubleValue
46.87

@<SCITEGIC>MOL_PROPERTY
Delta G
SciTegic.value.DoubleValue
0.340

@<SCITEGIC>MOL_PROPERTY
G
SciTegic.value.DoubleValue
62.415

@<SCITEGIC>MOL_PROPERTY
E
SciTegic.value.DoubleValue
29.635

@<SCITEGIC>MOL_PROPERTY
-TS
SciTegic.value.DoubleValue
32.781

@<SCITEGIC>MOL_PROPERTY
U+W
SciTegic.value.DoubleValue
9.067

@<SCITEGIC>MOL_PROPERTY
U
SciTegic.value.DoubleValue
11.150

@<SCITEGIC>MOL_PROPERTY
W
SciTegic.value.DoubleValue
-2.083

@<SCITEGIC>MOL_PROPERTY
W(PB)
SciTegic.value.DoubleValue
-4.217

@<SCITEGIC>MOL_PROPERTY
W(SA)
SciTegic.value.DoubleValue
2.134

@<SCITEGIC>MOL_PROPERTY
Valence
SciTegic.value.DoubleValue
16.583

@<SCITEGIC>MOL_PROPERTY
Coulomb
SciTegic.value.DoubleValue
-8.361

@<SCITEGIC>MOL_PROPERTY
VdW
SciTegic.value.DoubleValue
2.928

@<SCITEGIC>MOL_PROPERTY
VdW6
SciTegic.value.DoubleValue
-12.539

@<SCITEGIC>MOL_PROPERTY
VdW12
SciTegic.value.DoubleValue
15.467

@<SCITEGIC>MOL_PROPERTY
Bond
SciTegic.value.DoubleValue
0.441

@<SCITEGIC>MOL_PROPERTY
Angle
SciTegic.value.DoubleValue
5.093

@<SCITEGIC>MOL_PROPERTY
Pdih
SciTegic.value.DoubleValue
11.049

@<SCITEGIC>MOL_PROPERTY
Idih
SciTegic.value.DoubleValue
0.000

@<SCITEGIC>MOL_PROPERTY
Tether
SciTegic.value.DoubleValue
0.000

@<TRIPOS>MOLECULE
guest-s17_vm2.mol2 : vm2 ligand conformer 14
          25          25           1
SMALL
USER_CHARGES
 
@<TRIPOS>ATOM
       1    C1      20.522400   19.366714   20.607153 C.3        1 MOL1        -0.1684
       2    H1      19.658936   19.552824   19.954240 H          1 MOL1         0.0833
       3    H2      21.392710   19.313864   19.938808 H          1 MOL1         0.0833
       4    C2      20.356139   17.977199   21.275667 C.3        1 MOL1        -0.1684
       5    H3      20.529762   17.222353   20.496504 H          1 MOL1         0.0833
       6    H4      19.316144   17.817479   21.581774 H          1 MOL1         0.0833
       7    C3      21.321315   17.684050   22.453521 C.3        1 MOL1        -0.1684
       8    H5      22.242091   18.275000   22.365671 H          1 MOL1         0.0833
       9    H6      21.642835   16.637365   22.364189 H          1 MOL1         0.0833
      10    C4      20.695165   17.846360   23.865554 C.3        1 MOL1        -0.1760
      11    H7      19.800088   17.215380   23.942644 H          1 MOL1         0.0833
      12    H8      21.409268   17.437101   24.592431 H          1 MOL1         0.0833
      13    C5      20.343335   19.286836   24.313498 C.3        1 MOL1         0.1219
      14    H9      21.231312   19.923846   24.204538 H          1 MOL1         0.0790
      15    C6      19.149845   19.914317   23.547616 C.3        1 MOL1        -0.1760
      16    H10     18.526660   19.127105   23.111482 H          1 MOL1         0.0833
      17    H11     18.485854   20.424112   24.258367 H          1 MOL1         0.0833
      18    C7      19.539983   20.951231   22.462553 C.3        1 MOL1        -0.1684
      19    H12     19.790956   21.892768   22.969962 H          1 MOL1         0.0833
      20    H13     18.657754   21.171204   21.846246 H          1 MOL1         0.0833
      21    C8      20.730194   20.586229   21.540036 C.3        1 MOL1        -0.1684
      22    H14     20.924159   21.457076   20.899079 H          1 MOL1         0.0833
      23    H15     21.648740   20.465467   22.125558 H          1 MOL1         0.0833
      24    O1      20.005625   19.230065   25.694401 O.3        1 MOL1        -0.5508
      25    H16     19.852376   20.153706   25.984084 H          1 MOL1         0.3780
@<TRIPOS>BOND
    1     1     2    1
    2     1     3    1
    3     1     4    1
    4     4     5    1
    5     4     6    1
    6     4     7    1
    7     7     8    1
    8     7     9    1
    9     7    10    1
   10    10    11    1
   11    10    12    1
   12    10    13    1
   13    13    14    1
   14    13    15    1
   15    15    16    1
   16    15    17    1
   17    15    18    1
   18    18    19    1
   19    18    20    1
   20     1    21    1
   21    18    21    1
   22    21    22    1
   23    21    23    1
   24    13    24    1
   25    24    25    1
@<TRIPOS>SUBSTRUCTURE
       1 MOL1            1 RESIDUE      1      MOL     
@<SCITEGIC>MOL_PROPERTY
VM2 Rank
SciTegic.value.IntegerValue
14

@<SCITEGIC>MOL_PROPERTY
Conf_Id
SciTegic.value.IntegerValue
1859

@<SCITEGIC>MOL_PROPERTY
Probability
SciTegic.value.DoubleValue
2.57

@<SCITEGIC>MOL_PROPERTY
Sum Probability
SciTegic.value.DoubleValue
49.44

@<SCITEGIC>MOL_PROPERTY
Delta G
SciTegic.value.DoubleValue
0.348

@<SCITEGIC>MOL_PROPERTY
G
SciTegic.value.DoubleValue
62.424

@<SCITEGIC>MOL_PROPERTY
E
SciTegic.value.DoubleValue
29.643

@<SCITEGIC>MOL_PROPERTY
-TS
SciTegic.value.DoubleValue
32.781

@<SCITEGIC>MOL_PROPERTY
U+W
SciTegic.value.DoubleValue
9.075

@<SCITEGIC>MOL_PROPERTY
U
SciTegic.value.DoubleValue
11.150

@<SCITEGIC>MOL_PROPERTY
W
SciTegic.value.DoubleValue
-2.074

@<SCITEGIC>MOL_PROPERTY
W(PB)
SciTegic.value.DoubleValue
-4.196

@<SCITEGIC>MOL_PROPERTY
W(SA)
SciTegic.value.DoubleValue
2.121

@<SCITEGIC>MOL_PROPERTY
Valence
SciTegic.value.DoubleValue
16.583

@<SCITEGIC>MOL_PROPERTY
Coulomb
SciTegic.value.DoubleValue
-8.361

@<SCITEGIC>MOL_PROPERTY
VdW
SciTegic.value.DoubleValue
2.928

@<SCITEGIC>MOL_PROPERTY
VdW6
SciTegic.value.DoubleValue
-12.539

@<SCITEGIC>MOL_PROPERTY
VdW12
SciTegic.value.DoubleValue
15.466

@<SCITEGIC>MOL_PROPERTY
Bond
SciTegic.value.DoubleValue
0.441

@<SCITEGIC>MOL_PROPERTY
Angle
SciTegic.value.DoubleValue
5.093

@<SCITEGIC>MOL_PROPERTY
Pdih
SciTegic.value.DoubleValue
11.049

@<SCITEGIC>MOL_PROPERTY
Idih
SciTegic.value.DoubleValue
0.000

@<SCITEGIC>MOL_PROPERTY
Tether
SciTegic.value.DoubleValue
0.000

@<TRIPOS>MOLECULE
guest-s17_vm2.mol2 : vm2 ligand conformer 15
          25          25           1
SMALL
USER_CHARGES
 
@<TRIPOS>ATOM
       1    C1      20.521998   19.365776   20.605894 C.3        1 MOL1        -0.1684
       2    H1      19.659008   19.551976   19.952379 H          1 MOL1         0.0833
       3    H2      21.392707   19.311041   19.938225 H          1 MOL1         0.0833
       4    C2      20.353544   17.978114   21.277032 C.3        1 MOL1        -0.1684
       5    H3      19.313973   17.822351   21.586635 H          1 MOL1         0.0833
       6    H4      20.522854   17.221181   20.498941 H          1 MOL1         0.0833
       7    C3      21.321599   17.685808   22.452580 C.3        1 MOL1        -0.1684
       8    H5      22.241853   18.277284   22.362645 H          1 MOL1         0.0833
       9    H6      21.643780   16.639406   22.361900 H          1 MOL1         0.0833
      10    C4      20.698358   17.846945   23.865803 C.3        1 MOL1        -0.1760
      11    H7      19.803153   17.215600   23.941509 H          1 MOL1         0.0833
      12    H8      21.414956   17.433066   24.587283 H          1 MOL1         0.0833
      13    C5      20.344656   19.287286   24.315333 C.3        1 MOL1         0.1219
      14    H9      21.229651   19.929001   24.209366 H          1 MOL1         0.0790
      15    C6      19.152008   19.915767   23.549382 C.3        1 MOL1        -0.1760
      16    H10     18.522336   19.130035   23.120188 H          1 MOL1         0.0833
      17    H11     18.497470   20.431058   24.265337 H          1 MOL1         0.0833
      18    C7      19.540129   20.950136   22.460736 C.3        1 MOL1        -0.1684
      19    H12     19.790802   21.892432   22.966922 H          1 MOL1         0.0833
      20    H13     18.656937   21.168512   21.845327 H          1 MOL1         0.0833
      21    C8      20.730124   20.585598   21.538021 C.3        1 MOL1        -0.1684
      22    H14     21.648478   20.465317   22.123943 H          1 MOL1         0.0833
      23    H15     20.923764   21.456300   20.896784 H          1 MOL1         0.0833
      24    O1      20.001584   19.227570   25.695219 O.3        1 MOL1        -0.5508
      25    H16     20.787881   18.883432   26.168006 H          1 MOL1         0.3780
@<TRIPOS>BOND
    1     1     2    1
    2     1     3    1
    3     1     4    1
    4     4     5    1
    5     4     6    1
    6     4     7    1
    7     7     8    1
    8     7     9    1
    9     7    10    1
   10    10    11    1
   11    10    12    1
   12    10    13    1
   13    13    14    1
   14    13    15    1
   15    15    16    1
   16    15    17    1
   17    15    18    1
   18    18    19    1
   19    18    20    1
   20     1    21    1
   21    18    21    1
   22    21    22    1
   23    21    23    1
   24    13    24    1
   25    24    25    1
@<TRIPOS>SUBSTRUCTURE
       1 MOL1            1 RESIDUE      1      MOL     
@<SCITEGIC>MOL_PROPERTY
VM2 Rank
SciTegic.value.IntegerValue
15

@<SCITEGIC>MOL_PROPERTY
Conf_Id
SciTegic.value.IntegerValue
127

@<SCITEGIC>MOL_PROPERTY
Probability
SciTegic.value.DoubleValue
2.55

@<SCITEGIC>MOL_PROPERTY
Sum Probability
SciTegic.value.DoubleValue
51.99

@<SCITEGIC>MOL_PROPERTY
Delta G
SciTegic.value.DoubleValue
0.354

@<SCITEGIC>MOL_PROPERTY
G
SciTegic.value.DoubleValue
62.430

@<SCITEGIC>MOL_PROPERTY
E
SciTegic.value.DoubleValue
29.684

@<SCITEGIC>MOL_PROPERTY
-TS
SciTegic.value.DoubleValue
32.745

@<SCITEGIC>MOL_PROPERTY
U+W
SciTegic.value.DoubleValue
9.117

@<SCITEGIC>MOL_PROPERTY
U
SciTegic.value.DoubleValue
11.364

@<SCITEGIC>MOL_PROPERTY
W
SciTegic.value.DoubleValue
-2.248

@<SCITEGIC>MOL_PROPERTY
W(PB)
SciTegic.value.DoubleValue
-4.367

@<SCITEGIC>MOL_PROPERTY
W(SA)
SciTegic.value.DoubleValue
2.119

@<SCITEGIC>MOL_PROPERTY
Valence
SciTegic.value.DoubleValue
16.582

@<SCITEGIC>MOL_PROPERTY
Coulomb
SciTegic.value.DoubleValue
-8.150

@<SCITEGIC>MOL_PROPERTY
VdW
SciTegic.value.DoubleValue
2.932

@<SCITEGIC>MOL_PROPERTY
VdW6
SciTegic.value.DoubleValue
-12.531

@<SCITEGIC>MOL_PROPERTY
VdW12
SciTegic.value.DoubleValue
15.464

@<SCITEGIC>MOL_PROPERTY
Bond
SciTegic.value.DoubleValue
0.439

@<SCITEGIC>MOL_PROPERTY
Angle
SciTegic.value.DoubleValue
5.099

@<SCITEGIC>MOL_PROPERTY
Pdih
SciTegic.value.DoubleValue
11.044

@<SCITEGIC>MOL_PROPERTY
Idih
SciTegic.value.DoubleValue
0.000

@<SCITEGIC>MOL_PROPERTY
Tether
SciTegic.value.DoubleValue
0.000

@<TRIPOS>MOLECULE
guest-s17_vm2.mol2 : vm2 ligand conformer 16
          25          25           1
SMALL
USER_CHARGES
 
@<TRIPOS>ATOM
       1    C1      20.557970   19.223607   20.604131 C.3        1 MOL1        -0.1684
       2    H1      20.075556   18.474257   19.962057 H          1 MOL1         0.0833
       3    H2      21.131859   19.869561   19.925671 H          1 MOL1         0.0833
       4    C2      21.572094   18.518776   21.539496 C.3        1 MOL1        -0.1684
       5    H3      22.139868   19.259787   22.113675 H          1 MOL1         0.0833
       6    H4      22.321090   18.031919   20.900141 H          1 MOL1         0.0833
       7    C3      20.992562   17.431026   22.478282 C.3        1 MOL1        -0.1684
       8    H5      21.838443   16.947550   22.985942 H          1 MOL1         0.0833
       9    H6      20.518873   16.645086   21.874660 H          1 MOL1         0.0833
      10    C4      19.992582   17.901607   23.566533 C.3        1 MOL1        -0.1760
      11    H7      18.989618   18.007508   23.141190 H          1 MOL1         0.0833
      12    H8      19.897290   17.083071   24.292793 H          1 MOL1         0.0833
      13    C5      20.396237   19.198107   24.315016 C.3        1 MOL1         0.1219
      14    H9      21.475331   19.368122   24.201449 H          1 MOL1         0.0790
      15    C6      19.626356   20.461768   23.854360 C.3        1 MOL1        -0.1760
      16    H10     18.547211   20.276866   23.937887 H          1 MOL1         0.0833
      17    H11     19.844673   21.269536   24.565128 H          1 MOL1         0.0833
      18    C7      19.946121   20.999284   22.432942 C.3        1 MOL1        -0.1684
      19    H12     21.014735   21.229959   22.334705 H          1 MOL1         0.0833
      20    H13     19.434149   21.966213   22.333370 H          1 MOL1         0.0833
      21    C8      19.461662   20.094435   21.270600 C.3        1 MOL1        -0.1684
      22    H14     19.042546   20.740340   20.486900 H          1 MOL1         0.0833
      23    H15     18.617648   19.473820   21.592002 H          1 MOL1         0.0833
      24    O1      20.118416   19.014390   25.698639 O.3        1 MOL1        -0.5508
      25    H16     20.433959   19.819110   26.160245 H          1 MOL1         0.3780
@<TRIPOS>BOND
    1     1     2    1
    2     1     3    1
    3     1     4    1
    4     4     5    1
    5     4     6    1
    6     4     7    1
    7     7     8    1
    8     7     9    1
    9     7    10    1
   10    10    11    1
   11    10    12    1
   12    10    13    1
   13    13    14    1
   14    13    15    1
   15    15    16    1
   16    15    17    1
   17    15    18    1
   18    18    19    1
   19    18    20    1
   20     1    21    1
   21    18    21    1
   22    21    22    1
   23    21    23    1
   24    13    24    1
   25    24    25    1
@<TRIPOS>SUBSTRUCTURE
       1 MOL1            1 RESIDUE      1      MOL     
@<SCITEGIC>MOL_PROPERTY
VM2 Rank
SciTegic.value.IntegerValue
16

@<SCITEGIC>MOL_PROPERTY
Conf_Id
SciTegic.value.IntegerValue
1665

@<SCITEGIC>MOL_PROPERTY
Probability
SciTegic.value.DoubleValue
2.48

@<SCITEGIC>MOL_PROPERTY
Sum Probability
SciTegic.value.DoubleValue
54.47

@<SCITEGIC>MOL_PROPERTY
Delta G
SciTegic.value.DoubleValue
0.370

@<SCITEGIC>MOL_PROPERTY
G
SciTegic.value.DoubleValue
62.445

@<SCITEGIC>MOL_PROPERTY
E
SciTegic.value.DoubleValue
29.700

@<SCITEGIC>MOL_PROPERTY
-TS
SciTegic.value.DoubleValue
32.745

@<SCITEGIC>MOL_PROPERTY
U+W
SciTegic.value.DoubleValue
9.133

@<SCITEGIC>MOL_PROPERTY
U
SciTegic.value.DoubleValue
11.364

@<SCITEGIC>MOL_PROPERTY
W
SciTegic.value.DoubleValue
-2.232

@<SCITEGIC>MOL_PROPERTY
W(PB)
SciTegic.value.DoubleValue
-4.359

@<SCITEGIC>MOL_PROPERTY
W(SA)
SciTegic.value.DoubleValue
2.127

@<SCITEGIC>MOL_PROPERTY
Valence
SciTegic.value.DoubleValue
16.582

@<SCITEGIC>MOL_PROPERTY
Coulomb
SciTegic.value.DoubleValue
-8.150

@<SCITEGIC>MOL_PROPERTY
VdW
SciTegic.value.DoubleValue
2.932

@<SCITEGIC>MOL_PROPERTY
VdW6
SciTegic.value.DoubleValue
-12.531

@<SCITEGIC>MOL_PROPERTY
VdW12
SciTegic.value.DoubleValue
15.464

@<SCITEGIC>MOL_PROPERTY
Bond
SciTegic.value.DoubleValue
0.439

@<SCITEGIC>MOL_PROPERTY
Angle
SciTegic.value.DoubleValue
5.099

@<SCITEGIC>MOL_PROPERTY
Pdih
SciTegic.value.DoubleValue
11.044

@<SCITEGIC>MOL_PROPERTY
Idih
SciTegic.value.DoubleValue
0.000

@<SCITEGIC>MOL_PROPERTY
Tether
SciTegic.value.DoubleValue
0.000

@<TRIPOS>MOLECULE
guest-s17_vm2.mol2 : vm2 ligand conformer 17
          25          25           1
SMALL
USER_CHARGES
 
@<TRIPOS>ATOM
       1    C1      20.521617   19.365654   20.606645 C.3        1 MOL1        -0.1684
       2    H1      19.658040   19.551846   19.953901 H          1 MOL1         0.0833
       3    H2      21.391757   19.311451   19.938185 H          1 MOL1         0.0833
       4    C2      20.354453   17.977565   21.277256 C.3        1 MOL1        -0.1684
       5    H3      19.314870   17.820535   21.586140 H          1 MOL1         0.0833
       6    H4      20.525050   17.221103   20.498980 H          1 MOL1         0.0833
       7    C3      21.322288   17.685923   22.453174 C.3        1 MOL1        -0.1684
       8    H5      22.241911   18.278544   22.364361 H          1 MOL1         0.0833
       9    H6      21.645864   16.639932   22.362788 H          1 MOL1         0.0833
      10    C4      20.697405   17.846503   23.865531 C.3        1 MOL1        -0.1760
      11    H7      19.805585   17.210566   23.939406 H          1 MOL1         0.0833
      12    H8      21.414995   17.438809   24.590159 H          1 MOL1         0.0833
      13    C5      20.342752   19.286626   24.314036 C.3        1 MOL1         0.1219
      14    H9      21.228939   19.926707   24.209929 H          1 MOL1         0.0790
      15    C6      19.150133   19.916795   23.549105 C.3        1 MOL1        -0.1760
      16    H10     18.520316   19.132973   23.116101 H          1 MOL1         0.0833
      17    H11     18.495671   20.435367   24.262812 H          1 MOL1         0.0833
      18    C7      19.540712   20.951038   22.461418 C.3        1 MOL1        -0.1684
      19    H12     19.792985   21.892606   22.968230 H          1 MOL1         0.0833
      20    H13     18.658308   21.171577   21.845605 H          1 MOL1         0.0833
      21    C8      20.730455   20.585266   21.538925 C.3        1 MOL1        -0.1684
      22    H14     20.924906   21.455807   20.897712 H          1 MOL1         0.0833
      23    H15     21.648649   20.464477   22.125040 H          1 MOL1         0.0833
      24    O1      20.004185   19.227631   25.693911 O.3        1 MOL1        -0.5508
      25    H16     19.216472   18.649750   25.761003 H          1 MOL1         0.3780
@<TRIPOS>BOND
    1     1     2    1
    2     1     3    1
    3     1     4    1
    4     4     5    1
    5     4     6    1
    6     4     7    1
    7     7     8    1
    8     7     9    1
    9     7    10    1
   10    10    11    1
   11    10    12    1
   12    10    13    1
   13    13    14    1
   14    13    15    1
   15    15    16    1
   16    15    17    1
   17    15    18    1
   18    18    19    1
   19    18    20    1
   20     1    21    1
   21    18    21    1
   22    21    22    1
   23    21    23    1
   24    13    24    1
   25    24    25    1
@<TRIPOS>SUBSTRUCTURE
       1 MOL1            1 RESIDUE      1      MOL     
@<SCITEGIC>MOL_PROPERTY
VM2 Rank
SciTegic.value.IntegerValue
17

@<SCITEGIC>MOL_PROPERTY
Conf_Id
SciTegic.value.IntegerValue
1429

@<SCITEGIC>MOL_PROPERTY
Probability
SciTegic.value.DoubleValue
2.44

@<SCITEGIC>MOL_PROPERTY
Sum Probability
SciTegic.value.DoubleValue
56.91

@<SCITEGIC>MOL_PROPERTY
Delta G
SciTegic.value.DoubleValue
0.380

@<SCITEGIC>MOL_PROPERTY
G
SciTegic.value.DoubleValue
62.455

@<SCITEGIC>MOL_PROPERTY
E
SciTegic.value.DoubleValue
29.716

@<SCITEGIC>MOL_PROPERTY
-TS
SciTegic.value.DoubleValue
32.739

@<SCITEGIC>MOL_PROPERTY
U+W
SciTegic.value.DoubleValue
9.148

@<SCITEGIC>MOL_PROPERTY
U
SciTegic.value.DoubleValue
11.181

@<SCITEGIC>MOL_PROPERTY
W
SciTegic.value.DoubleValue
-2.032

@<SCITEGIC>MOL_PROPERTY
W(PB)
SciTegic.value.DoubleValue
-4.147

@<SCITEGIC>MOL_PROPERTY
W(SA)
SciTegic.value.DoubleValue
2.114

@<SCITEGIC>MOL_PROPERTY
Valence
SciTegic.value.DoubleValue
16.955

@<SCITEGIC>MOL_PROPERTY
Coulomb
SciTegic.value.DoubleValue
-8.661

@<SCITEGIC>MOL_PROPERTY
VdW
SciTegic.value.DoubleValue
2.887

@<SCITEGIC>MOL_PROPERTY
VdW6
SciTegic.value.DoubleValue
-12.561

@<SCITEGIC>MOL_PROPERTY
VdW12
SciTegic.value.DoubleValue
15.448

@<SCITEGIC>MOL_PROPERTY
Bond
SciTegic.value.DoubleValue
0.433

@<SCITEGIC>MOL_PROPERTY
Angle
SciTegic.value.DoubleValue
5.120

@<SCITEGIC>MOL_PROPERTY
Pdih
SciTegic.value.DoubleValue
11.402

@<SCITEGIC>MOL_PROPERTY
Idih
SciTegic.value.DoubleValue
0.000

@<SCITEGIC>MOL_PROPERTY
Tether
SciTegic.value.DoubleValue
0.000

@<TRIPOS>MOLECULE
guest-s17_vm2.mol2 : vm2 ligand conformer 18
          25          25           1
SMALL
USER_CHARGES
 
@<TRIPOS>ATOM
       1    C1      20.885973   19.438688   20.678228 C.3        1 MOL1        -0.1684
       2    H1      20.084664   19.098471   20.008128 H          1 MOL1         0.0833
       3    H2      21.697028   19.774753   20.017844 H          1 MOL1         0.0833
       4    C2      21.415726   18.231984   21.496712 C.3        1 MOL1        -0.1684
       5    H3      21.849647   17.523446   20.777871 H          1 MOL1         0.0833
       6    H4      22.252343   18.534174   22.139852 H          1 MOL1         0.0833
       7    C3      20.332826   17.471057   22.304624 C.3        1 MOL1        -0.1684
       8    H5      20.522733   16.393636   22.204173 H          1 MOL1         0.0833
       9    H6      19.344277   17.618912   21.855143 H          1 MOL1         0.0833
      10    C4      20.296872   17.791000   23.821944 C.3        1 MOL1        -0.1760
      11    H7      19.371336   17.382615   24.247992 H          1 MOL1         0.0833
      12    H8      21.117866   17.237073   24.296633 H          1 MOL1         0.0833
      13    C5      20.443713   19.275215   24.232664 C.3        1 MOL1         0.1219
      14    H9      21.385635   19.667774   23.830826 H          1 MOL1         0.0790
      15    C6      19.283904   20.206228   23.806981 C.3        1 MOL1        -0.1760
      16    H10     18.342070   19.836680   24.232768 H          1 MOL1         0.0833
      17    H11     19.462043   21.185020   24.272199 H          1 MOL1         0.0833
      18    C7      19.087600   20.440124   22.286232 C.3        1 MOL1        -0.1684
      19    H12     18.452620   21.329567   22.173611 H          1 MOL1         0.0833
      20    H13     18.502227   19.626658   21.842686 H          1 MOL1         0.0833
      21    C8      20.392885   20.670813   21.481610 C.3        1 MOL1        -0.1684
      22    H14     20.194768   21.469283   20.753433 H          1 MOL1         0.0833
      23    H15     21.191932   21.062585   22.124195 H          1 MOL1         0.0833
      24    O1      20.524501   19.317890   25.651004 O.3        1 MOL1        -0.5508
      25    H16     19.676051   18.964258   25.988207 H          1 MOL1         0.3780
@<TRIPOS>BOND
    1     1     2    1
    2     1     3    1
    3     1     4    1
    4     4     5    1
    5     4     6    1
    6     4     7    1
    7     7     8    1
    8     7     9    1
    9     7    10    1
   10    10    11    1
   11    10    12    1
   12    10    13    1
   13    13    14    1
   14    13    15    1
   15    15    16    1
   16    15    17    1
   17    15    18    1
   18    18    19    1
   19    18    20    1
   20     1    21    1
   21    18    21    1
   22    21    22    1
   23    21    23    1
   24    13    24    1
   25    24    25    1
@<TRIPOS>SUBSTRUCTURE
       1 MOL1            1 RESIDUE      1      MOL     
@<SCITEGIC>MOL_PROPERTY
VM2 Rank
SciTegic.value.IntegerValue
18

@<SCITEGIC>MOL_PROPERTY
Conf_Id
SciTegic.value.IntegerValue
1648

@<SCITEGIC>MOL_PROPERTY
Probability
SciTegic.value.DoubleValue
2.37

@<SCITEGIC>MOL_PROPERTY
Sum Probability
SciTegic.value.DoubleValue
59.27

@<SCITEGIC>MOL_PROPERTY
Delta G
SciTegic.value.DoubleValue
0.398

@<SCITEGIC>MOL_PROPERTY
G
SciTegic.value.DoubleValue
62.474

@<SCITEGIC>MOL_PROPERTY
E
SciTegic.value.DoubleValue
29.828

@<SCITEGIC>MOL_PROPERTY
-TS
SciTegic.value.DoubleValue
32.646

@<SCITEGIC>MOL_PROPERTY
U+W
SciTegic.value.DoubleValue
9.260

@<SCITEGIC>MOL_PROPERTY
U
SciTegic.value.DoubleValue
11.191

@<SCITEGIC>MOL_PROPERTY
W
SciTegic.value.DoubleValue
-1.930

@<SCITEGIC>MOL_PROPERTY
W(PB)
SciTegic.value.DoubleValue
-4.074

@<SCITEGIC>MOL_PROPERTY
W(SA)
SciTegic.value.DoubleValue
2.144

@<SCITEGIC>MOL_PROPERTY
Valence
SciTegic.value.DoubleValue
17.334

@<SCITEGIC>MOL_PROPERTY
Coulomb
SciTegic.value.DoubleValue
-8.749

@<SCITEGIC>MOL_PROPERTY
VdW
SciTegic.value.DoubleValue
2.606

@<SCITEGIC>MOL_PROPERTY
VdW6
SciTegic.value.DoubleValue
-12.571

@<SCITEGIC>MOL_PROPERTY
VdW12
SciTegic.value.DoubleValue
15.178

@<SCITEGIC>MOL_PROPERTY
Bond
SciTegic.value.DoubleValue
0.408

@<SCITEGIC>MOL_PROPERTY
Angle
SciTegic.value.DoubleValue
5.152

@<SCITEGIC>MOL_PROPERTY
Pdih
SciTegic.value.DoubleValue
11.774

@<SCITEGIC>MOL_PROPERTY
Idih
SciTegic.value.DoubleValue
0.000

@<SCITEGIC>MOL_PROPERTY
Tether
SciTegic.value.DoubleValue
0.000

@<TRIPOS>MOLECULE
guest-s17_vm2.mol2 : vm2 ligand conformer 19
          25          25           1
SMALL
USER_CHARGES
 
@<TRIPOS>ATOM
       1    C1      20.557613   19.223450   20.604877 C.3        1 MOL1        -0.1684
       2    H1      20.074678   18.473780   19.963570 H          1 MOL1         0.0833
       3    H2      21.131553   19.868550   19.925642 H          1 MOL1         0.0833
       4    C2      21.572010   18.519123   21.540367 C.3        1 MOL1        -0.1684
       5    H3      22.321395   18.032867   20.901005 H          1 MOL1         0.0833
       6    H4      22.139414   19.260300   22.114746 H          1 MOL1         0.0833
       7    C3      20.993407   17.430732   22.478925 C.3        1 MOL1        -0.1684
       8    H5      21.839856   16.948801   22.987177 H          1 MOL1         0.0833
       9    H6      20.521710   16.643874   21.874894 H          1 MOL1         0.0833
      10    C4      19.991830   17.899575   23.566259 C.3        1 MOL1        -0.1760
      11    H7      18.990111   18.004113   23.137108 H          1 MOL1         0.0833
      12    H8      19.898792   17.078739   24.290267 H          1 MOL1         0.0833
      13    C5      20.394414   19.197170   24.313750 C.3        1 MOL1         0.1219
      14    H9      21.473229   19.369081   24.202046 H          1 MOL1         0.0790
      15    C6      19.625510   20.461455   23.854121 C.3        1 MOL1        -0.1760
      16    H10     18.545485   20.282277   23.935712 H          1 MOL1         0.0833
      17    H11     19.848969   21.265542   24.568085 H          1 MOL1         0.0833
      18    C7      19.946940   20.999744   22.433577 C.3        1 MOL1        -0.1684
      19    H12     21.015960   21.229018   22.336499 H          1 MOL1         0.0833
      20    H13     19.436394   21.967450   22.334310 H          1 MOL1         0.0833
      21    C8      19.462040   20.095625   21.270826 C.3        1 MOL1        -0.1684
      22    H14     18.617023   19.476001   21.591478 H          1 MOL1         0.0833
      23    H15     19.044268   20.742195   20.486947 H          1 MOL1         0.0833
      24    O1      20.120235   19.016127   25.697300 O.3        1 MOL1        -0.5508
      25    H16     19.154868   18.869285   25.771091 H          1 MOL1         0.3780
@<TRIPOS>BOND
    1     1     2    1
    2     1     3    1
    3     1     4    1
    4     4     5    1
    5     4     6    1
    6     4     7    1
    7     7     8    1
    8     7     9    1
    9     7    10    1
   10    10    11    1
   11    10    12    1
   12    10    13    1
   13    13    14    1
   14    13    15    1
   15    15    16    1
   16    15    17    1
   17    15    18    1
   18    18    19    1
   19    18    20    1
   20     1    21    1
   21    18    21    1
   22    21    22    1
   23    21    23    1
   24    13    24    1
   25    24    25    1
@<TRIPOS>SUBSTRUCTURE
       1 MOL1            1 RESIDUE      1      MOL     
@<SCITEGIC>MOL_PROPERTY
VM2 Rank
SciTegic.value.IntegerValue
19

@<SCITEGIC>MOL_PROPERTY
Conf_Id
SciTegic.value.IntegerValue
287

@<SCITEGIC>MOL_PROPERTY
Probability
SciTegic.value.DoubleValue
2.19

@<SCITEGIC>MOL_PROPERTY
Sum Probability
SciTegic.value.DoubleValue
61.47

@<SCITEGIC>MOL_PROPERTY
Delta G
SciTegic.value.DoubleValue
0.443

@<SCITEGIC>MOL_PROPERTY
G
SciTegic.value.DoubleValue
62.519

@<SCITEGIC>MOL_PROPERTY
E
SciTegic.value.DoubleValue
29.779

@<SCITEGIC>MOL_PROPERTY
-TS
SciTegic.value.DoubleValue
32.740

@<SCITEGIC>MOL_PROPERTY
U+W
SciTegic.value.DoubleValue
9.212

@<SCITEGIC>MOL_PROPERTY
U
SciTegic.value.DoubleValue
11.181

@<SCITEGIC>MOL_PROPERTY
W
SciTegic.value.DoubleValue
-1.969

@<SCITEGIC>MOL_PROPERTY
W(PB)
SciTegic.value.DoubleValue
-4.093

@<SCITEGIC>MOL_PROPERTY
W(SA)
SciTegic.value.DoubleValue
2.124

@<SCITEGIC>MOL_PROPERTY
Valence
SciTegic.value.DoubleValue
16.955

@<SCITEGIC>MOL_PROPERTY
Coulomb
SciTegic.value.DoubleValue
-8.661

@<SCITEGIC>MOL_PROPERTY
VdW
SciTegic.value.DoubleValue
2.887

@<SCITEGIC>MOL_PROPERTY
VdW6
SciTegic.value.DoubleValue
-12.561

@<SCITEGIC>MOL_PROPERTY
VdW12
SciTegic.value.DoubleValue
15.448

@<SCITEGIC>MOL_PROPERTY
Bond
SciTegic.value.DoubleValue
0.433

@<SCITEGIC>MOL_PROPERTY
Angle
SciTegic.value.DoubleValue
5.121

@<SCITEGIC>MOL_PROPERTY
Pdih
SciTegic.value.DoubleValue
11.402

@<SCITEGIC>MOL_PROPERTY
Idih
SciTegic.value.DoubleValue
0.000

@<SCITEGIC>MOL_PROPERTY
Tether
SciTegic.value.DoubleValue
0.000

@<TRIPOS>MOLECULE
guest-s17_vm2.mol2 : vm2 ligand conformer 20
          25          25           1
SMALL
USER_CHARGES
 
@<TRIPOS>ATOM
       1    C1      20.073478   19.166399   20.752283 C.3        1 MOL1        -0.1684
       2    H1      19.005164   18.992018   20.933498 H          1 MOL1         0.0833
       3    H2      20.171227   19.233462   19.660119 H          1 MOL1         0.0833
       4    C2      20.914890   17.945439   21.207939 C.3        1 MOL1        -0.1684
       5    H3      20.622667   17.088562   20.585746 H          1 MOL1         0.0833
       6    H4      21.973726   18.127264   20.978696 H          1 MOL1         0.0833
       7    C3      20.776559   17.517383   22.692355 C.3        1 MOL1        -0.1684
       8    H5      21.313928   16.565990   22.804976 H          1 MOL1         0.0833
       9    H6      19.731353   17.285509   22.934805 H          1 MOL1         0.0833
      10    C4      21.378355   18.518770   23.715172 C.3        1 MOL1        -0.1760
      11    H7      21.928168   17.944841   24.472569 H          1 MOL1         0.0833
      12    H8      22.147448   19.134654   23.237704 H          1 MOL1         0.0833
      13    C5      20.359940   19.422650   24.455785 C.3        1 MOL1         0.1219
      14    H9      20.918631   20.244934   24.925434 H          1 MOL1         0.0790
      15    C6      19.229085   20.039019   23.598942 C.3        1 MOL1        -0.1760
      16    H10     18.617422   19.246513   23.154658 H          1 MOL1         0.0833
      17    H11     18.551405   20.563333   24.285456 H          1 MOL1         0.0833
      18    C7      19.661540   21.059889   22.514675 C.3        1 MOL1        -0.1684
      19    H12     20.185930   21.898216   22.992953 H          1 MOL1         0.0833
      20    H13     18.746253   21.489051   22.084650 H          1 MOL1         0.0833
      21    C8      20.527515   20.525481   21.345160 C.3        1 MOL1        -0.1684
      22    H14     21.584163   20.485275   21.632747 H          1 MOL1         0.0833
      23    H15     20.489843   21.277402   20.545033 H          1 MOL1         0.0833
      24    O1      19.742638   18.647969   25.477690 O.3        1 MOL1        -0.5508
      25    H16     20.464571   18.275248   26.024468 H          1 MOL1         0.3780
@<TRIPOS>BOND
    1     1     2    1
    2     1     3    1
    3     1     4    1
    4     4     5    1
    5     4     6    1
    6     4     7    1
    7     7     8    1
    8     7     9    1
    9     7    10    1
   10    10    11    1
   11    10    12    1
   12    10    13    1
   13    13    14    1
   14    13    15    1
   15    15    16    1
   16    15    17    1
   17    15    18    1
   18    18    19    1
   19    18    20    1
   20     1    21    1
   21    18    21    1
   22    21    22    1
   23    21    23    1
   24    13    24    1
   25    24    25    1
@<TRIPOS>SUBSTRUCTURE
       1 MOL1            1 RESIDUE      1      MOL     
@<SCITEGIC>MOL_PROPERTY
VM2 Rank
SciTegic.value.IntegerValue
20

@<SCITEGIC>MOL_PROPERTY
Conf_Id
SciTegic.value.IntegerValue
1352

@<SCITEGIC>MOL_PROPERTY
Probability
SciTegic.value.DoubleValue
1.97

@<SCITEGIC>MOL_PROPERTY
Sum Probability
SciTegic.value.DoubleValue
63.44

@<SCITEGIC>MOL_PROPERTY
Delta G
SciTegic.value.DoubleValue
0.509

@<SCITEGIC>MOL_PROPERTY
G
SciTegic.value.DoubleValue
62.584

@<SCITEGIC>MOL_PROPERTY
E
SciTegic.value.DoubleValue
29.865

@<SCITEGIC>MOL_PROPERTY
-TS
SciTegic.value.DoubleValue
32.719

@<SCITEGIC>MOL_PROPERTY
U+W
SciTegic.value.DoubleValue
9.298

@<SCITEGIC>MOL_PROPERTY
U
SciTegic.value.DoubleValue
11.545

@<SCITEGIC>MOL_PROPERTY
W
SciTegic.value.DoubleValue
-2.247

@<SCITEGIC>MOL_PROPERTY
W(PB)
SciTegic.value.DoubleValue
-4.380

@<SCITEGIC>MOL_PROPERTY
W(SA)
SciTegic.value.DoubleValue
2.133

@<SCITEGIC>MOL_PROPERTY
Valence
SciTegic.value.DoubleValue
16.814

@<SCITEGIC>MOL_PROPERTY
Coulomb
SciTegic.value.DoubleValue
-7.999

@<SCITEGIC>MOL_PROPERTY
VdW
SciTegic.value.DoubleValue
2.729

@<SCITEGIC>MOL_PROPERTY
VdW6
SciTegic.value.DoubleValue
-12.749

@<SCITEGIC>MOL_PROPERTY
VdW12
SciTegic.value.DoubleValue
15.478

@<SCITEGIC>MOL_PROPERTY
Bond
SciTegic.value.DoubleValue
0.438

@<SCITEGIC>MOL_PROPERTY
Angle
SciTegic.value.DoubleValue
5.318

@<SCITEGIC>MOL_PROPERTY
Pdih
SciTegic.value.DoubleValue
11.059

@<SCITEGIC>MOL_PROPERTY
Idih
SciTegic.value.DoubleValue
0.000

@<SCITEGIC>MOL_PROPERTY
Tether
SciTegic.value.DoubleValue
0.000

@<TRIPOS>MOLECULE
guest-s17_vm2.mol2 : vm2 ligand conformer 21
          25          25           1
SMALL
USER_CHARGES
 
@<TRIPOS>ATOM
       1    C1      21.058481   19.529841   20.991374 C.3        1 MOL1        -0.1684
       2    H1      21.421008   19.684230   19.966004 H          1 MOL1         0.0833
       3    H2      21.876577   19.881720   21.630149 H          1 MOL1         0.0833
       4    C2      20.842544   18.007846   21.179817 C.3        1 MOL1        -0.1684
       5    H3      20.092052   17.655525   20.459311 H          1 MOL1         0.0833
       6    H4      21.779336   17.505396   20.902596 H          1 MOL1         0.0833
       7    C3      20.445858   17.523472   22.597550 C.3        1 MOL1        -0.1684
       8    H5      20.621628   16.439472   22.627863 H          1 MOL1         0.0833
       9    H6      19.366765   17.626532   22.748925 H          1 MOL1         0.0833
      10    C4      21.243368   18.171842   23.764094 C.3        1 MOL1        -0.1760
      11    H7      21.466461   17.381959   24.493485 H          1 MOL1         0.0833
      12    H8      22.225110   18.514088   23.414920 H          1 MOL1         0.0833
      13    C5      20.535477   19.309556   24.546073 C.3        1 MOL1         0.1219
      14    H9      21.222813   19.605540   25.351540 H          1 MOL1         0.0790
      15    C6      20.199007   20.604862   23.761238 C.3        1 MOL1        -0.1760
      16    H10     19.779424   21.312116   24.488864 H          1 MOL1         0.0833
      17    H11     21.123664   21.080119   23.411934 H          1 MOL1         0.0833
      18    C7      19.180674   20.471032   22.594057 C.3        1 MOL1        -0.1684
      19    H12     18.515895   21.345192   22.622058 H          1 MOL1         0.0833
      20    H13     18.511952   19.618070   22.746516 H          1 MOL1         0.0833
      21    C8      19.806325   20.422175   21.176978 C.3        1 MOL1        -0.1684
      22    H14     19.034579   20.119502   20.456357 H          1 MOL1         0.0833
      23    H15     20.087722   21.446819   20.898042 H          1 MOL1         0.0833
      24    O1      19.352266   18.802374   25.148819 O.3        1 MOL1        -0.5508
      25    H16     18.767358   18.550345   24.408069 H          1 MOL1         0.3780
@<TRIPOS>BOND
    1     1     2    1
    2     1     3    1
    3     1     4    1
    4     4     5    1
    5     4     6    1
    6     4     7    1
    7     7     8    1
    8     7     9    1
    9     7    10    1
   10    10    11    1
   11    10    12    1
   12    10    13    1
   13    13    14    1
   14    13    15    1
   15    15    16    1
   16    15    17    1
   17    15    18    1
   18    18    19    1
   19    18    20    1
   20     1    21    1
   21    18    21    1
   22    21    22    1
   23    21    23    1
   24    13    24    1
   25    24    25    1
@<TRIPOS>SUBSTRUCTURE
       1 MOL1            1 RESIDUE      1      MOL     
@<SCITEGIC>MOL_PROPERTY
VM2 Rank
SciTegic.value.IntegerValue
21

@<SCITEGIC>MOL_PROPERTY
Conf_Id
SciTegic.value.IntegerValue
533

@<SCITEGIC>MOL_PROPERTY
Probability
SciTegic.value.DoubleValue
1.87

@<SCITEGIC>MOL_PROPERTY
Sum Probability
SciTegic.value.DoubleValue
65.31

@<SCITEGIC>MOL_PROPERTY
Delta G
SciTegic.value.DoubleValue
0.537

@<SCITEGIC>MOL_PROPERTY
G
SciTegic.value.DoubleValue
62.613

@<SCITEGIC>MOL_PROPERTY
E
SciTegic.value.DoubleValue
29.810

@<SCITEGIC>MOL_PROPERTY
-TS
SciTegic.value.DoubleValue
32.802

@<SCITEGIC>MOL_PROPERTY
U+W
SciTegic.value.DoubleValue
9.243

@<SCITEGIC>MOL_PROPERTY
U
SciTegic.value.DoubleValue
10.674

@<SCITEGIC>MOL_PROPERTY
W
SciTegic.value.DoubleValue
-1.432

@<SCITEGIC>MOL_PROPERTY
W(PB)
SciTegic.value.DoubleValue
-3.549

@<SCITEGIC>MOL_PROPERTY
W(SA)
SciTegic.value.DoubleValue
2.118

@<SCITEGIC>MOL_PROPERTY
Valence
SciTegic.value.DoubleValue
17.246

@<SCITEGIC>MOL_PROPERTY
Coulomb
SciTegic.value.DoubleValue
-9.242

@<SCITEGIC>MOL_PROPERTY
VdW
SciTegic.value.DoubleValue
2.671

@<SCITEGIC>MOL_PROPERTY
VdW6
SciTegic.value.DoubleValue
-13.410

@<SCITEGIC>MOL_PROPERTY
VdW12
SciTegic.value.DoubleValue
16.081

@<SCITEGIC>MOL_PROPERTY
Bond
SciTegic.value.DoubleValue
0.483

@<SCITEGIC>MOL_PROPERTY
Angle
SciTegic.value.DoubleValue
6.110

@<SCITEGIC>MOL_PROPERTY
Pdih
SciTegic.value.DoubleValue
10.652

@<SCITEGIC>MOL_PROPERTY
Idih
SciTegic.value.DoubleValue
0.000

@<SCITEGIC>MOL_PROPERTY
Tether
SciTegic.value.DoubleValue
0.000

@<TRIPOS>MOLECULE
guest-s17_vm2.mol2 : vm2 ligand conformer 22
          25          25           1
SMALL
USER_CHARGES
 
@<TRIPOS>ATOM
       1    C1      20.145964   19.063926   20.750238 C.3        1 MOL1        -0.1684
       2    H1      19.290075   18.398402   20.920748 H          1 MOL1         0.0833
       3    H2      20.276678   19.088294   19.659737 H          1 MOL1         0.0833
       4    C2      21.443627   18.475362   21.362136 C.3        1 MOL1        -0.1684
       5    H3      21.981045   17.935767   20.570286 H          1 MOL1         0.0833
       6    H4      22.127589   19.278835   21.657862 H          1 MOL1         0.0833
       7    C3      21.231705   17.478750   22.530521 C.3        1 MOL1        -0.1684
       8    H5      22.196477   17.295286   23.022537 H          1 MOL1         0.0833
       9    H6      20.931228   16.514682   22.097926 H          1 MOL1         0.0833
      10    C4      20.173694   17.856316   23.599579 C.3        1 MOL1        -0.1760
      11    H7      19.182832   17.944704   23.141359 H          1 MOL1         0.0833
      12    H8      20.088878   17.003952   24.286411 H          1 MOL1         0.0833
      13    C5      20.477243   19.106446   24.458621 C.3        1 MOL1         0.1219
      14    H9      21.453641   18.958989   24.942107 H          1 MOL1         0.0790
      15    C6      20.515572   20.466593   23.716184 C.3        1 MOL1        -0.1760
      16    H10     20.457123   21.261197   24.471515 H          1 MOL1         0.0833
      17    H11     21.496471   20.612160   23.252030 H          1 MOL1         0.0833
      18    C7      19.386109   20.703100   22.677208 C.3        1 MOL1        -0.1684
      19    H12     19.051119   21.743818   22.783436 H          1 MOL1         0.0833
      20    H13     18.502845   20.093706   22.908478 H          1 MOL1         0.0833
      21    C8      19.814785   20.511460   21.198908 C.3        1 MOL1        -0.1684
      22    H14     18.996027   20.877752   20.564699 H          1 MOL1         0.0833
      23    H15     20.670372   21.164885   20.980382 H          1 MOL1         0.0833
      24    O1      19.475302   19.181048   25.466605 O.3        1 MOL1        -0.5508
      25    H16     19.684391   19.964964   26.015083 H          1 MOL1         0.3780
@<TRIPOS>BOND
    1     1     2    1
    2     1     3    1
    3     1     4    1
    4     4     5    1
    5     4     6    1
    6     4     7    1
    7     7     8    1
    8     7     9    1
    9     7    10    1
   10    10    11    1
   11    10    12    1
   12    10    13    1
   13    13    14    1
   14    13    15    1
   15    15    16    1
   16    15    17    1
   17    15    18    1
   18    18    19    1
   19    18    20    1
   20     1    21    1
   21    18    21    1
   22    21    22    1
   23    21    23    1
   24    13    24    1
   25    24    25    1
@<TRIPOS>SUBSTRUCTURE
       1 MOL1            1 RESIDUE      1      MOL     
@<SCITEGIC>MOL_PROPERTY
VM2 Rank
SciTegic.value.IntegerValue
22

@<SCITEGIC>MOL_PROPERTY
Conf_Id
SciTegic.value.IntegerValue
1156

@<SCITEGIC>MOL_PROPERTY
Probability
SciTegic.value.DoubleValue
1.87

@<SCITEGIC>MOL_PROPERTY
Sum Probability
SciTegic.value.DoubleValue
67.18

@<SCITEGIC>MOL_PROPERTY
Delta G
SciTegic.value.DoubleValue
0.538

@<SCITEGIC>MOL_PROPERTY
G
SciTegic.value.DoubleValue
62.614

@<SCITEGIC>MOL_PROPERTY
E
SciTegic.value.DoubleValue
29.895

@<SCITEGIC>MOL_PROPERTY
-TS
SciTegic.value.DoubleValue
32.719

@<SCITEGIC>MOL_PROPERTY
U+W
SciTegic.value.DoubleValue
9.327

@<SCITEGIC>MOL_PROPERTY
U
SciTegic.value.DoubleValue
11.545

@<SCITEGIC>MOL_PROPERTY
W
SciTegic.value.DoubleValue
-2.217

@<SCITEGIC>MOL_PROPERTY
W(PB)
SciTegic.value.DoubleValue
-4.341

@<SCITEGIC>MOL_PROPERTY
W(SA)
SciTegic.value.DoubleValue
2.124

@<SCITEGIC>MOL_PROPERTY
Valence
SciTegic.value.DoubleValue
16.814

@<SCITEGIC>MOL_PROPERTY
Coulomb
SciTegic.value.DoubleValue
-7.999

@<SCITEGIC>MOL_PROPERTY
VdW
SciTegic.value.DoubleValue
2.729

@<SCITEGIC>MOL_PROPERTY
VdW6
SciTegic.value.DoubleValue
-12.749

@<SCITEGIC>MOL_PROPERTY
VdW12
SciTegic.value.DoubleValue
15.478

@<SCITEGIC>MOL_PROPERTY
Bond
SciTegic.value.DoubleValue
0.438

@<SCITEGIC>MOL_PROPERTY
Angle
SciTegic.value.DoubleValue
5.318

@<SCITEGIC>MOL_PROPERTY
Pdih
SciTegic.value.DoubleValue
11.058

@<SCITEGIC>MOL_PROPERTY
Idih
SciTegic.value.DoubleValue
0.000

@<SCITEGIC>MOL_PROPERTY
Tether
SciTegic.value.DoubleValue
0.000

@<TRIPOS>MOLECULE
guest-s17_vm2.mol2 : vm2 ligand conformer 23
          25          25           1
SMALL
USER_CHARGES
 
@<TRIPOS>ATOM
       1    C1      20.763931   19.246438   20.797828 C.3        1 MOL1        -0.1684
       2    H1      20.716062   19.076838   19.713489 H          1 MOL1         0.0833
       3    H2      21.824063   19.433197   21.011676 H          1 MOL1         0.0833
       4    C2      20.271640   17.951590   21.494503 C.3        1 MOL1        -0.1684
       5    H3      19.206539   18.028090   21.741035 H          1 MOL1         0.0833
       6    H4      20.328412   17.128416   20.769274 H          1 MOL1         0.0833
       7    C3      21.086987   17.521716   22.740117 C.3        1 MOL1        -0.1684
       8    H5      22.022092   17.064732   22.389014 H          1 MOL1         0.0833
       9    H6      20.543399   16.721858   23.260832 H          1 MOL1         0.0833
      10    C4      21.463754   18.635596   23.753519 C.3        1 MOL1        -0.1760
      11    H7      22.109042   18.182667   24.517207 H          1 MOL1         0.0833
      12    H8      22.102166   19.381245   23.267843 H          1 MOL1         0.0833
      13    C5      20.302509   19.346854   24.492234 C.3        1 MOL1         0.1219
      14    H9      20.767543   20.045383   25.202820 H          1 MOL1         0.0790
      15    C6      19.326831   20.176874   23.623240 C.3        1 MOL1        -0.1760
      16    H10     18.562535   19.531529   23.176704 H          1 MOL1         0.0833
      17    H11     18.772081   20.829020   24.310202 H          1 MOL1         0.0833
      18    C7      19.985698   21.072666   22.539889 C.3        1 MOL1        -0.1684
      19    H12     21.020505   21.322631   22.806799 H          1 MOL1         0.0833
      20    H13     19.451272   22.032503   22.535443 H          1 MOL1         0.0833
      21    C8      19.911878   20.507305   21.097521 C.3        1 MOL1        -0.1684
      22    H14     18.863189   20.307397   20.838466 H          1 MOL1         0.0833
      23    H15     20.237920   21.300765   20.411295 H          1 MOL1         0.0833
      24    O1      19.550773   18.383960   25.221148 O.3        1 MOL1        -0.5508
      25    H16     20.196700   17.850406   25.727704 H          1 MOL1         0.3780
@<TRIPOS>BOND
    1     1     2    1
    2     1     3    1
    3     1     4    1
    4     4     5    1
    5     4     6    1
    6     4     7    1
    7     7     8    1
    8     7     9    1
    9     7    10    1
   10    10    11    1
   11    10    12    1
   12    10    13    1
   13    13    14    1
   14    13    15    1
   15    15    16    1
   16    15    17    1
   17    15    18    1
   18    18    19    1
   19    18    20    1
   20     1    21    1
   21    18    21    1
   22    21    22    1
   23    21    23    1
   24    13    24    1
   25    24    25    1
@<TRIPOS>SUBSTRUCTURE
       1 MOL1            1 RESIDUE      1      MOL     
@<SCITEGIC>MOL_PROPERTY
VM2 Rank
SciTegic.value.IntegerValue
23

@<SCITEGIC>MOL_PROPERTY
Conf_Id
SciTegic.value.IntegerValue
696

@<SCITEGIC>MOL_PROPERTY
Probability
SciTegic.value.DoubleValue
1.59

@<SCITEGIC>MOL_PROPERTY
Sum Probability
SciTegic.value.DoubleValue
68.77

@<SCITEGIC>MOL_PROPERTY
Delta G
SciTegic.value.DoubleValue
0.635

@<SCITEGIC>MOL_PROPERTY
G
SciTegic.value.DoubleValue
62.710

@<SCITEGIC>MOL_PROPERTY
E
SciTegic.value.DoubleValue
30.025

@<SCITEGIC>MOL_PROPERTY
-TS
SciTegic.value.DoubleValue
32.685

@<SCITEGIC>MOL_PROPERTY
U+W
SciTegic.value.DoubleValue
9.457

@<SCITEGIC>MOL_PROPERTY
U
SciTegic.value.DoubleValue
11.668

@<SCITEGIC>MOL_PROPERTY
W
SciTegic.value.DoubleValue
-2.211

@<SCITEGIC>MOL_PROPERTY
W(PB)
SciTegic.value.DoubleValue
-4.346

@<SCITEGIC>MOL_PROPERTY
W(SA)
SciTegic.value.DoubleValue
2.135

@<SCITEGIC>MOL_PROPERTY
Valence
SciTegic.value.DoubleValue
16.811

@<SCITEGIC>MOL_PROPERTY
Coulomb
SciTegic.value.DoubleValue
-7.706

@<SCITEGIC>MOL_PROPERTY
VdW
SciTegic.value.DoubleValue
2.563

@<SCITEGIC>MOL_PROPERTY
VdW6
SciTegic.value.DoubleValue
-12.922

@<SCITEGIC>MOL_PROPERTY
VdW12
SciTegic.value.DoubleValue
15.484

@<SCITEGIC>MOL_PROPERTY
Bond
SciTegic.value.DoubleValue
0.437

@<SCITEGIC>MOL_PROPERTY
Angle
SciTegic.value.DoubleValue
5.466

@<SCITEGIC>MOL_PROPERTY
Pdih
SciTegic.value.DoubleValue
10.908

@<SCITEGIC>MOL_PROPERTY
Idih
SciTegic.value.DoubleValue
0.000

@<SCITEGIC>MOL_PROPERTY
Tether
SciTegic.value.DoubleValue
0.000

@<TRIPOS>MOLECULE
guest-s17_vm2.mol2 : vm2 ligand conformer 24
          25          25           1
SMALL
USER_CHARGES
 
@<TRIPOS>ATOM
       1    C1      20.659675   19.500345   20.797568 C.3        1 MOL1        -0.1684
       2    H1      20.508286   19.580485   19.712439 H          1 MOL1         0.0833
       3    H2      21.535554   20.126183   21.011236 H          1 MOL1         0.0833
       4    C2      20.960371   18.010055   21.104510 C.3        1 MOL1        -0.1684
       5    H3      20.083270   17.401401   20.845560 H          1 MOL1         0.0833
       6    H4      21.756665   17.683239   20.421946 H          1 MOL1         0.0833
       7    C3      21.411118   17.672466   22.549629 C.3        1 MOL1        -0.1684
       8    H5      22.314159   18.236152   22.816693 H          1 MOL1         0.0833
       9    H6      21.720754   16.618407   22.550587 H          1 MOL1         0.0833
      10    C4      20.307376   17.835445   23.629161 C.3        1 MOL1        -0.1760
      11    H7      19.312617   17.741085   23.180201 H          1 MOL1         0.0833
      12    H8      20.381421   16.985606   24.319993 H          1 MOL1         0.0833
      13    C5      20.397242   19.116800   24.492922 C.3        1 MOL1         0.1219
      14    H9      21.219343   18.961641   25.206510 H          1 MOL1         0.0790
      15    C6      20.706437   20.440291   23.749385 C.3        1 MOL1        -0.1760
      16    H10     20.833796   21.221234   24.510087 H          1 MOL1         0.0833
      17    H11     21.687087   20.370578   23.266779 H          1 MOL1         0.0833
      18    C7      19.650934   20.948298   22.730803 C.3        1 MOL1        -0.1684
      19    H12     19.981741   21.933947   22.376418 H          1 MOL1         0.0833
      20    H13     18.698016   21.123745   23.248073 H          1 MOL1         0.0833
      21    C8      19.389294   20.060219   21.488225 C.3        1 MOL1        -0.1684
      22    H14     18.696321   19.248225   21.736256 H          1 MOL1         0.0833
      23    H15     18.844256   20.674765   20.758798 H          1 MOL1         0.0833
      24    O1      19.181553   19.259081   25.217796 O.3        1 MOL1        -0.5508
      25    H16     19.252620   20.095874   25.721013 H          1 MOL1         0.3780
@<TRIPOS>BOND
    1     1     2    1
    2     1     3    1
    3     1     4    1
    4     4     5    1
    5     4     6    1
    6     4     7    1
    7     7     8    1
    8     7     9    1
    9     7    10    1
   10    10    11    1
   11    10    12    1
   12    10    13    1
   13    13    14    1
   14    13    15    1
   15    15    16    1
   16    15    17    1
   17    15    18    1
   18    18    19    1
   19    18    20    1
   20     1    21    1
   21    18    21    1
   22    21    22    1
   23    21    23    1
   24    13    24    1
   25    24    25    1
@<TRIPOS>SUBSTRUCTURE
       1 MOL1            1 RESIDUE      1      MOL     
@<SCITEGIC>MOL_PROPERTY
VM2 Rank
SciTegic.value.IntegerValue
24

@<SCITEGIC>MOL_PROPERTY
Conf_Id
SciTegic.value.IntegerValue
1700

@<SCITEGIC>MOL_PROPERTY
Probability
SciTegic.value.DoubleValue
1.56

@<SCITEGIC>MOL_PROPERTY
Sum Probability
SciTegic.value.DoubleValue
70.33

@<SCITEGIC>MOL_PROPERTY
Delta G
SciTegic.value.DoubleValue
0.648

@<SCITEGIC>MOL_PROPERTY
G
SciTegic.value.DoubleValue
62.723

@<SCITEGIC>MOL_PROPERTY
E
SciTegic.value.DoubleValue
30.035

@<SCITEGIC>MOL_PROPERTY
-TS
SciTegic.value.DoubleValue
32.688

@<SCITEGIC>MOL_PROPERTY
U+W
SciTegic.value.DoubleValue
9.467

@<SCITEGIC>MOL_PROPERTY
U
SciTegic.value.DoubleValue
11.668

@<SCITEGIC>MOL_PROPERTY
W
SciTegic.value.DoubleValue
-2.201

@<SCITEGIC>MOL_PROPERTY
W(PB)
SciTegic.value.DoubleValue
-4.334

@<SCITEGIC>MOL_PROPERTY
W(SA)
SciTegic.value.DoubleValue
2.133

@<SCITEGIC>MOL_PROPERTY
Valence
SciTegic.value.DoubleValue
16.811

@<SCITEGIC>MOL_PROPERTY
Coulomb
SciTegic.value.DoubleValue
-7.706

@<SCITEGIC>MOL_PROPERTY
VdW
SciTegic.value.DoubleValue
2.563

@<SCITEGIC>MOL_PROPERTY
VdW6
SciTegic.value.DoubleValue
-12.922

@<SCITEGIC>MOL_PROPERTY
VdW12
SciTegic.value.DoubleValue
15.484

@<SCITEGIC>MOL_PROPERTY
Bond
SciTegic.value.DoubleValue
0.437

@<SCITEGIC>MOL_PROPERTY
Angle
SciTegic.value.DoubleValue
5.466

@<SCITEGIC>MOL_PROPERTY
Pdih
SciTegic.value.DoubleValue
10.908

@<SCITEGIC>MOL_PROPERTY
Idih
SciTegic.value.DoubleValue
0.000

@<SCITEGIC>MOL_PROPERTY
Tether
SciTegic.value.DoubleValue
0.000

@<TRIPOS>MOLECULE
guest-s17_vm2.mol2 : vm2 ligand conformer 25
          25          25           1
SMALL
USER_CHARGES
 
@<TRIPOS>ATOM
       1    C1      20.152237   19.065435   20.747658 C.3        1 MOL1        -0.1684
       2    H1      19.296246   18.398609   20.912594 H          1 MOL1         0.0833
       3    H2      20.289504   19.091040   19.657990 H          1 MOL1         0.0833
       4    C2      21.446739   18.478524   21.367348 C.3        1 MOL1        -0.1684
       5    H3      21.992382   17.943816   20.577811 H          1 MOL1         0.0833
       6    H4      22.125493   19.282769   21.672899 H          1 MOL1         0.0833
       7    C3      21.226724   17.476862   22.529449 C.3        1 MOL1        -0.1684
       8    H5      22.189498   17.286285   23.022742 H          1 MOL1         0.0833
       9    H6      20.922597   16.516504   22.091107 H          1 MOL1         0.0833
      10    C4      20.168471   17.855646   23.597561 C.3        1 MOL1        -0.1760
      11    H7      19.179229   17.948666   23.136359 H          1 MOL1         0.0833
      12    H8      20.081356   16.999103   24.278592 H          1 MOL1         0.0833
      13    C5      20.477553   19.105424   24.456247 C.3        1 MOL1         0.1219
      14    H9      21.458991   18.961236   24.930435 H          1 MOL1         0.0790
      15    C6      20.507330   20.467659   23.717283 C.3        1 MOL1        -0.1760
      16    H10     20.432626   21.253477   24.480809 H          1 MOL1         0.0833
      17    H11     21.490171   20.627368   23.262065 H          1 MOL1         0.0833
      18    C7      19.381877   20.701333   22.673045 C.3        1 MOL1        -0.1684
      19    H12     19.044968   21.741455   22.778628 H          1 MOL1         0.0833
      20    H13     18.498601   20.091261   22.901886 H          1 MOL1         0.0833
      21    C8      19.816446   20.511726   21.196203 C.3        1 MOL1        -0.1684
      22    H14     20.671730   21.166894   20.981770 H          1 MOL1         0.0833
      23    H15     18.999540   20.877109   20.559098 H          1 MOL1         0.0833
      24    O1      19.486621   19.180392   25.475206 O.3        1 MOL1        -0.5508
      25    H16     19.525139   18.335975   25.970002 H          1 MOL1         0.3780
@<TRIPOS>BOND
    1     1     2    1
    2     1     3    1
    3     1     4    1
    4     4     5    1
    5     4     6    1
    6     4     7    1
    7     7     8    1
    8     7     9    1
    9     7    10    1
   10    10    11    1
   11    10    12    1
   12    10    13    1
   13    13    14    1
   14    13    15    1
   15    15    16    1
   16    15    17    1
   17    15    18    1
   18    18    19    1
   19    18    20    1
   20     1    21    1
   21    18    21    1
   22    21    22    1
   23    21    23    1
   24    13    24    1
   25    24    25    1
@<TRIPOS>SUBSTRUCTURE
       1 MOL1            1 RESIDUE      1      MOL     
@<SCITEGIC>MOL_PROPERTY
VM2 Rank
SciTegic.value.IntegerValue
25

@<SCITEGIC>MOL_PROPERTY
Conf_Id
SciTegic.value.IntegerValue
1886

@<SCITEGIC>MOL_PROPERTY
Probability
SciTegic.value.DoubleValue
1.52

@<SCITEGIC>MOL_PROPERTY
Sum Probability
SciTegic.value.DoubleValue
71.85

@<SCITEGIC>MOL_PROPERTY
Delta G
SciTegic.value.DoubleValue
0.661

@<SCITEGIC>MOL_PROPERTY
G
SciTegic.value.DoubleValue
62.736

@<SCITEGIC>MOL_PROPERTY
E
SciTegic.value.DoubleValue
29.993

@<SCITEGIC>MOL_PROPERTY
-TS
SciTegic.value.DoubleValue
32.743

@<SCITEGIC>MOL_PROPERTY
U+W
SciTegic.value.DoubleValue
9.425

@<SCITEGIC>MOL_PROPERTY
U
SciTegic.value.DoubleValue
11.687

@<SCITEGIC>MOL_PROPERTY
W
SciTegic.value.DoubleValue
-2.262

@<SCITEGIC>MOL_PROPERTY
W(PB)
SciTegic.value.DoubleValue
-4.388

@<SCITEGIC>MOL_PROPERTY
W(SA)
SciTegic.value.DoubleValue
2.126

@<SCITEGIC>MOL_PROPERTY
Valence
SciTegic.value.DoubleValue
16.789

@<SCITEGIC>MOL_PROPERTY
Coulomb
SciTegic.value.DoubleValue
-7.836

@<SCITEGIC>MOL_PROPERTY
VdW
SciTegic.value.DoubleValue
2.734

@<SCITEGIC>MOL_PROPERTY
VdW6
SciTegic.value.DoubleValue
-12.729

@<SCITEGIC>MOL_PROPERTY
VdW12
SciTegic.value.DoubleValue
15.463

@<SCITEGIC>MOL_PROPERTY
Bond
SciTegic.value.DoubleValue
0.436

@<SCITEGIC>MOL_PROPERTY
Angle
SciTegic.value.DoubleValue
5.314

@<SCITEGIC>MOL_PROPERTY
Pdih
SciTegic.value.DoubleValue
11.039

@<SCITEGIC>MOL_PROPERTY
Idih
SciTegic.value.DoubleValue
0.000

@<SCITEGIC>MOL_PROPERTY
Tether
SciTegic.value.DoubleValue
0.000

@<TRIPOS>MOLECULE
guest-s17_vm2.mol2 : vm2 ligand conformer 26
          25          25           1
SMALL
USER_CHARGES
 
@<TRIPOS>ATOM
       1    C1      20.078867   19.169897   20.749627 C.3        1 MOL1        -0.1684
       2    H1      19.009479   18.996306   20.925282 H          1 MOL1         0.0833
       3    H2      20.181976   19.240901   19.658206 H          1 MOL1         0.0833
       4    C2      20.916198   17.946386   21.205263 C.3        1 MOL1        -0.1684
       5    H3      21.976146   18.126818   20.980118 H          1 MOL1         0.0833
       6    H4      20.624522   17.091443   20.580171 H          1 MOL1         0.0833
       7    C3      20.772341   17.515411   22.688311 C.3        1 MOL1        -0.1684
       8    H5      21.307971   16.563015   22.800340 H          1 MOL1         0.0833
       9    H6      19.726607   17.283960   22.928322 H          1 MOL1         0.0833
      10    C4      21.373511   18.512008   23.716452 C.3        1 MOL1        -0.1760
      11    H7      21.905849   17.932214   24.482295 H          1 MOL1         0.0833
      12    H8      22.154415   19.119784   23.247939 H          1 MOL1         0.0833
      13    C5      20.359324   19.423582   24.453406 C.3        1 MOL1         0.1219
      14    H9      20.923758   20.247227   24.913719 H          1 MOL1         0.0790
      15    C6      19.225037   20.035684   23.596936 C.3        1 MOL1        -0.1760
      16    H10     18.617825   19.241203   23.149661 H          1 MOL1         0.0833
      17    H11     18.542689   20.561140   24.277637 H          1 MOL1         0.0833
      18    C7      19.656862   21.057522   22.513601 C.3        1 MOL1        -0.1684
      19    H12     20.174720   21.899204   22.993169 H          1 MOL1         0.0833
      20    H13     18.741808   21.481463   22.077851 H          1 MOL1         0.0833
      21    C8      20.532090   20.525624   21.350301 C.3        1 MOL1        -0.1684
      22    H14     21.585839   20.481139   21.647809 H          1 MOL1         0.0833
      23    H15     20.503661   21.280262   20.552354 H          1 MOL1         0.0833
      24    O1      19.749770   18.656886   25.486103 O.3        1 MOL1        -0.5508
      25    H16     19.159961   19.264144   25.978759 H          1 MOL1         0.3780
@<TRIPOS>BOND
    1     1     2    1
    2     1     3    1
    3     1     4    1
    4     4     5    1
    5     4     6    1
    6     4     7    1
    7     7     8    1
    8     7     9    1
    9     7    10    1
   10    10    11    1
   11    10    12    1
   12    10    13    1
   13    13    14    1
   14    13    15    1
   15    15    16    1
   16    15    17    1
   17    15    18    1
   18    18    19    1
   19    18    20    1
   20     1    21    1
   21    18    21    1
   22    21    22    1
   23    21    23    1
   24    13    24    1
   25    24    25    1
@<TRIPOS>SUBSTRUCTURE
       1 MOL1            1 RESIDUE      1      MOL     
@<SCITEGIC>MOL_PROPERTY
VM2 Rank
SciTegic.value.IntegerValue
26

@<SCITEGIC>MOL_PROPERTY
Conf_Id
SciTegic.value.IntegerValue
1008

@<SCITEGIC>MOL_PROPERTY
Probability
SciTegic.value.DoubleValue
1.44

@<SCITEGIC>MOL_PROPERTY
Sum Probability
SciTegic.value.DoubleValue
73.29

@<SCITEGIC>MOL_PROPERTY
Delta G
SciTegic.value.DoubleValue
0.696

@<SCITEGIC>MOL_PROPERTY
G
SciTegic.value.DoubleValue
62.771

@<SCITEGIC>MOL_PROPERTY
E
SciTegic.value.DoubleValue
30.029

@<SCITEGIC>MOL_PROPERTY
-TS
SciTegic.value.DoubleValue
32.742

@<SCITEGIC>MOL_PROPERTY
U+W
SciTegic.value.DoubleValue
9.461

@<SCITEGIC>MOL_PROPERTY
U
SciTegic.value.DoubleValue
11.687

@<SCITEGIC>MOL_PROPERTY
W
SciTegic.value.DoubleValue
-2.226

@<SCITEGIC>MOL_PROPERTY
W(PB)
SciTegic.value.DoubleValue
-4.373

@<SCITEGIC>MOL_PROPERTY
W(SA)
SciTegic.value.DoubleValue
2.147

@<SCITEGIC>MOL_PROPERTY
Valence
SciTegic.value.DoubleValue
16.789

@<SCITEGIC>MOL_PROPERTY
Coulomb
SciTegic.value.DoubleValue
-7.836

@<SCITEGIC>MOL_PROPERTY
VdW
SciTegic.value.DoubleValue
2.734

@<SCITEGIC>MOL_PROPERTY
VdW6
SciTegic.value.DoubleValue
-12.729

@<SCITEGIC>MOL_PROPERTY
VdW12
SciTegic.value.DoubleValue
15.463

@<SCITEGIC>MOL_PROPERTY
Bond
SciTegic.value.DoubleValue
0.436

@<SCITEGIC>MOL_PROPERTY
Angle
SciTegic.value.DoubleValue
5.314

@<SCITEGIC>MOL_PROPERTY
Pdih
SciTegic.value.DoubleValue
11.039

@<SCITEGIC>MOL_PROPERTY
Idih
SciTegic.value.DoubleValue
0.000

@<SCITEGIC>MOL_PROPERTY
Tether
SciTegic.value.DoubleValue
0.000

@<TRIPOS>MOLECULE
guest-s17_vm2.mol2 : vm2 ligand conformer 27
          25          25           1
SMALL
USER_CHARGES
 
@<TRIPOS>ATOM
       1    C1      21.055502   19.512968   21.007025 C.3        1 MOL1        -0.1684
       2    H1      21.365313   19.741641   19.977970 H          1 MOL1         0.0833
       3    H2      21.845162   19.931537   21.644677 H          1 MOL1         0.0833
       4    C2      21.011485   17.971479   21.141379 C.3        1 MOL1        -0.1684
       5    H3      20.088630   17.581731   20.690686 H          1 MOL1         0.0833
       6    H4      21.831120   17.554461   20.540261 H          1 MOL1         0.0833
       7    C3      21.167751   17.424596   22.580646 C.3        1 MOL1        -0.1684
       8    H5      22.162579   17.675844   22.973159 H          1 MOL1         0.0833
       9    H6      21.139979   16.327823   22.522890 H          1 MOL1         0.0833
      10    C4      20.072923   17.883079   23.572851 C.3        1 MOL1        -0.1760
      11    H7      19.095178   17.874408   23.075275 H          1 MOL1         0.0833
      12    H8      19.998910   17.123590   24.362785 H          1 MOL1         0.0833
      13    C5      20.357507   19.263554   24.221867 C.3        1 MOL1         0.1219
      14    H9      21.358837   19.611574   23.932357 H          1 MOL1         0.0790
      15    C6      19.331916   20.352552   23.834915 C.3        1 MOL1        -0.1760
      16    H10     18.324512   19.919311   23.790058 H          1 MOL1         0.0833
      17    H11     19.297496   21.100643   24.638366 H          1 MOL1         0.0833
      18    C7      19.644121   21.103278   22.516729 C.3        1 MOL1        -0.1684
      19    H12     20.582262   21.665592   22.619024 H          1 MOL1         0.0833
      20    H13     18.860350   21.859821   22.374253 H          1 MOL1         0.0833
      21    C8      19.693595   20.218803   21.247829 C.3        1 MOL1        -0.1684
      22    H14     19.505553   20.873312   20.385565 H          1 MOL1         0.0833
      23    H15     18.863599   19.499957   21.250793 H          1 MOL1         0.0833
      24    O1      20.329201   19.112690   25.636757 O.3        1 MOL1        -0.5508
      25    H16     21.027060   18.462621   25.862669 H          1 MOL1         0.3780
@<TRIPOS>BOND
    1     1     2    1
    2     1     3    1
    3     1     4    1
    4     4     5    1
    5     4     6    1
    6     4     7    1
    7     7     8    1
    8     7     9    1
    9     7    10    1
   10    10    11    1
   11    10    12    1
   12    10    13    1
   13    13    14    1
   14    13    15    1
   15    15    16    1
   16    15    17    1
   17    15    18    1
   18    18    19    1
   19    18    20    1
   20     1    21    1
   21    18    21    1
   22    21    22    1
   23    21    23    1
   24    13    24    1
   25    24    25    1
@<TRIPOS>SUBSTRUCTURE
       1 MOL1            1 RESIDUE      1      MOL     
@<SCITEGIC>MOL_PROPERTY
VM2 Rank
SciTegic.value.IntegerValue
27

@<SCITEGIC>MOL_PROPERTY
Conf_Id
SciTegic.value.IntegerValue
267

@<SCITEGIC>MOL_PROPERTY
Probability
SciTegic.value.DoubleValue
1.42

@<SCITEGIC>MOL_PROPERTY
Sum Probability
SciTegic.value.DoubleValue
74.71

@<SCITEGIC>MOL_PROPERTY
Delta G
SciTegic.value.DoubleValue
0.703

@<SCITEGIC>MOL_PROPERTY
G
SciTegic.value.DoubleValue
62.778

@<SCITEGIC>MOL_PROPERTY
E
SciTegic.value.DoubleValue
30.568

@<SCITEGIC>MOL_PROPERTY
-TS
SciTegic.value.DoubleValue
32.210

@<SCITEGIC>MOL_PROPERTY
U+W
SciTegic.value.DoubleValue
10.001

@<SCITEGIC>MOL_PROPERTY
U
SciTegic.value.DoubleValue
12.140

@<SCITEGIC>MOL_PROPERTY
W
SciTegic.value.DoubleValue
-2.139

@<SCITEGIC>MOL_PROPERTY
W(PB)
SciTegic.value.DoubleValue
-4.284

@<SCITEGIC>MOL_PROPERTY
W(SA)
SciTegic.value.DoubleValue
2.144

@<SCITEGIC>MOL_PROPERTY
Valence
SciTegic.value.DoubleValue
18.247

@<SCITEGIC>MOL_PROPERTY
Coulomb
SciTegic.value.DoubleValue
-8.720

@<SCITEGIC>MOL_PROPERTY
VdW
SciTegic.value.DoubleValue
2.612

@<SCITEGIC>MOL_PROPERTY
VdW6
SciTegic.value.DoubleValue
-11.959

@<SCITEGIC>MOL_PROPERTY
VdW12
SciTegic.value.DoubleValue
14.571

@<SCITEGIC>MOL_PROPERTY
Bond
SciTegic.value.DoubleValue
0.338

@<SCITEGIC>MOL_PROPERTY
Angle
SciTegic.value.DoubleValue
3.151

@<SCITEGIC>MOL_PROPERTY
Pdih
SciTegic.value.DoubleValue
14.759

@<SCITEGIC>MOL_PROPERTY
Idih
SciTegic.value.DoubleValue
0.000

@<SCITEGIC>MOL_PROPERTY
Tether
SciTegic.value.DoubleValue
0.000

@<TRIPOS>MOLECULE
guest-s17_vm2.mol2 : vm2 ligand conformer 28
          25          25           1
SMALL
USER_CHARGES
 
@<TRIPOS>ATOM
       1    C1      21.275970   19.616054   21.137822 C.3        1 MOL1        -0.1684
       2    H1      21.855680   19.859572   20.237097 H          1 MOL1         0.0833
       3    H2      21.931117   19.894688   21.970930 H          1 MOL1         0.0833
       4    C2      21.033721   18.086037   21.128903 C.3        1 MOL1        -0.1684
       5    H3      20.464743   17.813981   20.229593 H          1 MOL1         0.0833
       6    H4      22.012289   17.598824   21.019675 H          1 MOL1         0.0833
       7    C3      20.335669   17.473689   22.370078 C.3        1 MOL1        -0.1684
       8    H5      20.509677   16.389409   22.337488 H          1 MOL1         0.0833
       9    H6      19.247684   17.578997   22.290953 H          1 MOL1         0.0833
      10    C4      20.835658   18.003760   23.740412 C.3        1 MOL1        -0.1760
      11    H7      20.900925   17.142699   24.419053 H          1 MOL1         0.0833
      12    H8      21.859326   18.389494   23.662353 H          1 MOL1         0.0833
      13    C5      19.905829   19.042635   24.416158 C.3        1 MOL1         0.1219
      14    H9      18.894351   18.614943   24.467078 H          1 MOL1         0.0790
      15    C6      19.808976   20.431299   23.735931 C.3        1 MOL1        -0.1760
      16    H10     19.235708   21.080008   24.411786 H          1 MOL1         0.0833
      17    H11     20.798873   20.896882   23.657725 H          1 MOL1         0.0833
      18    C7      19.082190   20.437465   22.364609 C.3        1 MOL1        -0.1684
      19    H12     18.425463   21.317465   22.328386 H          1 MOL1         0.0833
      20    H13     18.400013   19.583230   22.287273 H          1 MOL1         0.0833
      21    C8      20.009411   20.507888   21.124420 C.3        1 MOL1        -0.1684
      22    H14     20.341561   21.549048   21.012328 H          1 MOL1         0.0833
      23    H15     19.419075   20.286271   20.225034 H          1 MOL1         0.0833
      24    O1      20.376575   19.244174   25.741668 O.3        1 MOL1        -0.5508
      25    H16     21.275383   19.624151   25.660742 H          1 MOL1         0.3780
@<TRIPOS>BOND
    1     1     2    1
    2     1     3    1
    3     1     4    1
    4     4     5    1
    5     4     6    1
    6     4     7    1
    7     7     8    1
    8     7     9    1
    9     7    10    1
   10    10    11    1
   11    10    12    1
   12    10    13    1
   13    13    14    1
   14    13    15    1
   15    15    16    1
   16    15    17    1
   17    15    18    1
   18    18    19    1
   19    18    20    1
   20     1    21    1
   21    18    21    1
   22    21    22    1
   23    21    23    1
   24    13    24    1
   25    24    25    1
@<TRIPOS>SUBSTRUCTURE
       1 MOL1            1 RESIDUE      1      MOL     
@<SCITEGIC>MOL_PROPERTY
VM2 Rank
SciTegic.value.IntegerValue
28

@<SCITEGIC>MOL_PROPERTY
Conf_Id
SciTegic.value.IntegerValue
328

@<SCITEGIC>MOL_PROPERTY
Probability
SciTegic.value.DoubleValue
1.36

@<SCITEGIC>MOL_PROPERTY
Sum Probability
SciTegic.value.DoubleValue
76.07

@<SCITEGIC>MOL_PROPERTY
Delta G
SciTegic.value.DoubleValue
0.728

@<SCITEGIC>MOL_PROPERTY
G
SciTegic.value.DoubleValue
62.804

@<SCITEGIC>MOL_PROPERTY
E
SciTegic.value.DoubleValue
30.161

@<SCITEGIC>MOL_PROPERTY
-TS
SciTegic.value.DoubleValue
32.642

@<SCITEGIC>MOL_PROPERTY
U+W
SciTegic.value.DoubleValue
9.594

@<SCITEGIC>MOL_PROPERTY
U
SciTegic.value.DoubleValue
11.413

@<SCITEGIC>MOL_PROPERTY
W
SciTegic.value.DoubleValue
-1.819

@<SCITEGIC>MOL_PROPERTY
W(PB)
SciTegic.value.DoubleValue
-3.929

@<SCITEGIC>MOL_PROPERTY
W(SA)
SciTegic.value.DoubleValue
2.110

@<SCITEGIC>MOL_PROPERTY
Valence
SciTegic.value.DoubleValue
17.496

@<SCITEGIC>MOL_PROPERTY
Coulomb
SciTegic.value.DoubleValue
-8.736

@<SCITEGIC>MOL_PROPERTY
VdW
SciTegic.value.DoubleValue
2.653

@<SCITEGIC>MOL_PROPERTY
VdW6
SciTegic.value.DoubleValue
-12.485

@<SCITEGIC>MOL_PROPERTY
VdW12
SciTegic.value.DoubleValue
15.138

@<SCITEGIC>MOL_PROPERTY
Bond
SciTegic.value.DoubleValue
0.414

@<SCITEGIC>MOL_PROPERTY
Angle
SciTegic.value.DoubleValue
5.295

@<SCITEGIC>MOL_PROPERTY
Pdih
SciTegic.value.DoubleValue
11.787

@<SCITEGIC>MOL_PROPERTY
Idih
SciTegic.value.DoubleValue
0.000

@<SCITEGIC>MOL_PROPERTY
Tether
SciTegic.value.DoubleValue
0.000

@<TRIPOS>MOLECULE
guest-s17_vm2.mol2 : vm2 ligand conformer 29
          25          25           1
SMALL
USER_CHARGES
 
@<TRIPOS>ATOM
       1    C1      19.706361   18.990779   20.935762 C.3        1 MOL1        -0.1684
       2    H1      18.875850   18.677716   21.578697 H          1 MOL1         0.0833
       3    H2      19.330853   18.853638   19.912617 H          1 MOL1         0.0833
       4    C2      20.915571   18.039005   21.113503 C.3        1 MOL1        -0.1684
       5    H3      20.582614   17.029185   20.837290 H          1 MOL1         0.0833
       6    H4      21.695492   18.303626   20.386733 H          1 MOL1         0.0833
       7    C3      21.550106   17.958936   22.525478 C.3        1 MOL1        -0.1684
       8    H5      22.258418   18.781479   22.676180 H          1 MOL1         0.0833
       9    H6      22.171810   17.053447   22.549937 H          1 MOL1         0.0833
      10    C4      20.541126   17.886306   23.702763 C.3        1 MOL1        -0.1760
      11    H7      19.575336   17.486114   23.370580 H          1 MOL1         0.0833
      12    H8      20.929406   17.148802   24.417375 H          1 MOL1         0.0833
      13    C5      20.341621   19.215464   24.474078 C.3        1 MOL1         0.1219
      14    H9      21.329653   19.586854   24.782044 H          1 MOL1         0.0790
      15    C6      19.616606   20.352239   23.711185 C.3        1 MOL1        -0.1760
      16    H10     18.623974   20.022123   23.381803 H          1 MOL1         0.0833
      17    H11     19.427438   21.154298   24.436944 H          1 MOL1         0.0833
      18    C7      20.420622   20.970783   22.536224 C.3        1 MOL1        -0.1684
      19    H12     21.495726   20.818379   22.684105 H          1 MOL1         0.0833
      20    H13     20.290880   22.061223   22.568672 H          1 MOL1         0.0833
      21    C8      19.993499   20.501617   21.121880 C.3        1 MOL1        -0.1684
      22    H14     20.754555   20.818627   20.396083 H          1 MOL1         0.0833
      23    H15     19.078819   21.045908   20.849870 H          1 MOL1         0.0833
      24    O1      19.578486   18.927872   25.639128 O.3        1 MOL1        -0.5508
      25    H16     20.080187   18.257322   26.147858 H          1 MOL1         0.3780
@<TRIPOS>BOND
    1     1     2    1
    2     1     3    1
    3     1     4    1
    4     4     5    1
    5     4     6    1
    6     4     7    1
    7     7     8    1
    8     7     9    1
    9     7    10    1
   10    10    11    1
   11    10    12    1
   12    10    13    1
   13    13    14    1
   14    13    15    1
   15    15    16    1
   16    15    17    1
   17    15    18    1
   18    18    19    1
   19    18    20    1
   20     1    21    1
   21    18    21    1
   22    21    22    1
   23    21    23    1
   24    13    24    1
   25    24    25    1
@<TRIPOS>SUBSTRUCTURE
       1 MOL1            1 RESIDUE      1      MOL     
@<SCITEGIC>MOL_PROPERTY
VM2 Rank
SciTegic.value.IntegerValue
29

@<SCITEGIC>MOL_PROPERTY
Conf_Id
SciTegic.value.IntegerValue
87

@<SCITEGIC>MOL_PROPERTY
Probability
SciTegic.value.DoubleValue
1.25

@<SCITEGIC>MOL_PROPERTY
Sum Probability
SciTegic.value.DoubleValue
77.33

@<SCITEGIC>MOL_PROPERTY
Delta G
SciTegic.value.DoubleValue
0.777

@<SCITEGIC>MOL_PROPERTY
G
SciTegic.value.DoubleValue
62.852

@<SCITEGIC>MOL_PROPERTY
E
SciTegic.value.DoubleValue
30.198

@<SCITEGIC>MOL_PROPERTY
-TS
SciTegic.value.DoubleValue
32.654

@<SCITEGIC>MOL_PROPERTY
U+W
SciTegic.value.DoubleValue
9.630

@<SCITEGIC>MOL_PROPERTY
U
SciTegic.value.DoubleValue
11.876

@<SCITEGIC>MOL_PROPERTY
W
SciTegic.value.DoubleValue
-2.246

@<SCITEGIC>MOL_PROPERTY
W(PB)
SciTegic.value.DoubleValue
-4.376

@<SCITEGIC>MOL_PROPERTY
W(SA)
SciTegic.value.DoubleValue
2.130

@<SCITEGIC>MOL_PROPERTY
Valence
SciTegic.value.DoubleValue
17.153

@<SCITEGIC>MOL_PROPERTY
Coulomb
SciTegic.value.DoubleValue
-7.966

@<SCITEGIC>MOL_PROPERTY
VdW
SciTegic.value.DoubleValue
2.689

@<SCITEGIC>MOL_PROPERTY
VdW6
SciTegic.value.DoubleValue
-12.458

@<SCITEGIC>MOL_PROPERTY
VdW12
SciTegic.value.DoubleValue
15.147

@<SCITEGIC>MOL_PROPERTY
Bond
SciTegic.value.DoubleValue
0.421

@<SCITEGIC>MOL_PROPERTY
Angle
SciTegic.value.DoubleValue
5.257

@<SCITEGIC>MOL_PROPERTY
Pdih
SciTegic.value.DoubleValue
11.475

@<SCITEGIC>MOL_PROPERTY
Idih
SciTegic.value.DoubleValue
0.000

@<SCITEGIC>MOL_PROPERTY
Tether
SciTegic.value.DoubleValue
0.000

@<TRIPOS>MOLECULE
guest-s17_vm2.mol2 : vm2 ligand conformer 30
          25          25           1
SMALL
USER_CHARGES
 
@<TRIPOS>ATOM
       1    C1      21.073311   19.515320   21.014814 C.3        1 MOL1        -0.1684
       2    H1      21.464991   19.568425   19.989633 H          1 MOL1         0.0833
       3    H2      21.924476   19.766718   21.661095 H          1 MOL1         0.0833
       4    C2      20.588796   18.059002   21.250109 C.3        1 MOL1        -0.1684
       5    H3      19.492728   17.994099   21.242136 H          1 MOL1         0.0833
       6    H4      20.919736   17.459563   20.390810 H          1 MOL1         0.0833
       7    C3      21.158280   17.390674   22.524422 C.3        1 MOL1        -0.1684
       8    H5      22.221429   17.643095   22.637424 H          1 MOL1         0.0833
       9    H6      21.126839   16.301901   22.381115 H          1 MOL1         0.0833
      10    C4      20.397521   17.709504   23.835248 C.3        1 MOL1        -0.1760
      11    H7      19.374327   17.316320   23.780002 H          1 MOL1         0.0833
      12    H8      20.887168   17.149518   24.643345 H          1 MOL1         0.0833
      13    C5      20.367550   19.205000   24.222651 C.3        1 MOL1         0.1219
      14    H9      21.330221   19.655129   23.942926 H          1 MOL1         0.0790
      15    C6      19.206472   19.994903   23.562443 C.3        1 MOL1        -0.1760
      16    H10     18.505423   19.318684   23.057566 H          1 MOL1         0.0833
      17    H11     18.615399   20.486582   24.346776 H          1 MOL1         0.0833
      18    C7      19.679970   21.088003   22.575398 C.3        1 MOL1        -0.1684
      19    H12     20.563641   21.602550   22.976946 H          1 MOL1         0.0833
      20    H13     18.894921   21.853815   22.510197 H          1 MOL1         0.0833
      21    C8      19.964220   20.588053   21.138651 C.3        1 MOL1        -0.1684
      22    H14     19.035953   20.222925   20.678551 H          1 MOL1         0.0833
      23    H15     20.265766   21.459151   20.540899 H          1 MOL1         0.0833
      24    O1      20.227881   19.292541   25.636265 O.3        1 MOL1        -0.5508
      25    H16     20.271259   20.245065   25.863090 H          1 MOL1         0.3780
@<TRIPOS>BOND
    1     1     2    1
    2     1     3    1
    3     1     4    1
    4     4     5    1
    5     4     6    1
    6     4     7    1
    7     7     8    1
    8     7     9    1
    9     7    10    1
   10    10    11    1
   11    10    12    1
   12    10    13    1
   13    13    14    1
   14    13    15    1
   15    15    16    1
   16    15    17    1
   17    15    18    1
   18    18    19    1
   19    18    20    1
   20     1    21    1
   21    18    21    1
   22    21    22    1
   23    21    23    1
   24    13    24    1
   25    24    25    1
@<TRIPOS>SUBSTRUCTURE
       1 MOL1            1 RESIDUE      1      MOL     
@<SCITEGIC>MOL_PROPERTY
VM2 Rank
SciTegic.value.IntegerValue
30

@<SCITEGIC>MOL_PROPERTY
Conf_Id
SciTegic.value.IntegerValue
1545

@<SCITEGIC>MOL_PROPERTY
Probability
SciTegic.value.DoubleValue
1.25

@<SCITEGIC>MOL_PROPERTY
Sum Probability
SciTegic.value.DoubleValue
78.58

@<SCITEGIC>MOL_PROPERTY
Delta G
SciTegic.value.DoubleValue
0.779

@<SCITEGIC>MOL_PROPERTY
G
SciTegic.value.DoubleValue
62.855

@<SCITEGIC>MOL_PROPERTY
E
SciTegic.value.DoubleValue
30.645

@<SCITEGIC>MOL_PROPERTY
-TS
SciTegic.value.DoubleValue
32.210

@<SCITEGIC>MOL_PROPERTY
U+W
SciTegic.value.DoubleValue
10.077

@<SCITEGIC>MOL_PROPERTY
U
SciTegic.value.DoubleValue
12.140

@<SCITEGIC>MOL_PROPERTY
W
SciTegic.value.DoubleValue
-2.063

@<SCITEGIC>MOL_PROPERTY
W(PB)
SciTegic.value.DoubleValue
-4.217

@<SCITEGIC>MOL_PROPERTY
W(SA)
SciTegic.value.DoubleValue
2.155

@<SCITEGIC>MOL_PROPERTY
Valence
SciTegic.value.DoubleValue
18.247

@<SCITEGIC>MOL_PROPERTY
Coulomb
SciTegic.value.DoubleValue
-8.720

@<SCITEGIC>MOL_PROPERTY
VdW
SciTegic.value.DoubleValue
2.612

@<SCITEGIC>MOL_PROPERTY
VdW6
SciTegic.value.DoubleValue
-11.959

@<SCITEGIC>MOL_PROPERTY
VdW12
SciTegic.value.DoubleValue
14.571

@<SCITEGIC>MOL_PROPERTY
Bond
SciTegic.value.DoubleValue
0.338

@<SCITEGIC>MOL_PROPERTY
Angle
SciTegic.value.DoubleValue
3.151

@<SCITEGIC>MOL_PROPERTY
Pdih
SciTegic.value.DoubleValue
14.759

@<SCITEGIC>MOL_PROPERTY
Idih
SciTegic.value.DoubleValue
0.000

@<SCITEGIC>MOL_PROPERTY
Tether
SciTegic.value.DoubleValue
0.000

@<TRIPOS>MOLECULE
guest-s17_vm2.mol2 : vm2 ligand conformer 31
          25          25           1
SMALL
USER_CHARGES
 
@<TRIPOS>ATOM
       1    C1      21.053515   19.512010   21.002359 C.3        1 MOL1        -0.1684
       2    H1      21.360772   19.738047   19.971954 H          1 MOL1         0.0833
       3    H2      21.846578   19.928505   21.637188 H          1 MOL1         0.0833
       4    C2      21.003923   17.971217   21.139197 C.3        1 MOL1        -0.1684
       5    H3      20.076327   17.583766   20.696369 H          1 MOL1         0.0833
       6    H4      21.817538   17.550246   20.532690 H          1 MOL1         0.0833
       7    C3      21.170016   17.426910   22.578072 C.3        1 MOL1        -0.1684
       8    H5      22.165701   17.682429   22.965662 H          1 MOL1         0.0833
       9    H6      21.146652   16.330010   22.521813 H          1 MOL1         0.0833
      10    C4      20.079866   17.880299   23.578141 C.3        1 MOL1        -0.1760
      11    H7      19.096587   17.859901   23.092231 H          1 MOL1         0.0833
      12    H8      20.025518   17.124509   24.373458 H          1 MOL1         0.0833
      13    C5      20.357988   19.262978   24.225341 C.3        1 MOL1         0.1219
      14    H9      21.361655   19.608038   23.940285 H          1 MOL1         0.0790
      15    C6      19.331167   20.349559   23.831886 C.3        1 MOL1        -0.1760
      16    H10     18.326220   19.911523   23.775694 H          1 MOL1         0.0833
      17    H11     19.281908   21.099187   24.632758 H          1 MOL1         0.0833
      18    C7      19.650819   21.103254   22.517713 C.3        1 MOL1        -0.1684
      19    H12     20.592038   21.659930   22.622636 H          1 MOL1         0.0833
      20    H13     18.871552   21.864701   22.376316 H          1 MOL1         0.0833
      21    C8      19.695044   20.222410   21.246535 C.3        1 MOL1        -0.1684
      22    H14     18.862380   19.506565   21.248898 H          1 MOL1         0.0833
      23    H15     19.508529   20.879993   20.386269 H          1 MOL1         0.0833
      24    O1      20.321662   19.114363   25.640756 O.3        1 MOL1        -0.5508
      25    H16     20.571263   19.981681   26.022578 H          1 MOL1         0.3780
@<TRIPOS>BOND
    1     1     2    1
    2     1     3    1
    3     1     4    1
    4     4     5    1
    5     4     6    1
    6     4     7    1
    7     7     8    1
    8     7     9    1
    9     7    10    1
   10    10    11    1
   11    10    12    1
   12    10    13    1
   13    13    14    1
   14    13    15    1
   15    15    16    1
   16    15    17    1
   17    15    18    1
   18    18    19    1
   19    18    20    1
   20     1    21    1
   21    18    21    1
   22    21    22    1
   23    21    23    1
   24    13    24    1
   25    24    25    1
@<TRIPOS>SUBSTRUCTURE
       1 MOL1            1 RESIDUE      1      MOL     
@<SCITEGIC>MOL_PROPERTY
VM2 Rank
SciTegic.value.IntegerValue
31

@<SCITEGIC>MOL_PROPERTY
Conf_Id
SciTegic.value.IntegerValue
1732

@<SCITEGIC>MOL_PROPERTY
Probability
SciTegic.value.DoubleValue
1.20

@<SCITEGIC>MOL_PROPERTY
Sum Probability
SciTegic.value.DoubleValue
79.78

@<SCITEGIC>MOL_PROPERTY
Delta G
SciTegic.value.DoubleValue
0.803

@<SCITEGIC>MOL_PROPERTY
G
SciTegic.value.DoubleValue
62.878

@<SCITEGIC>MOL_PROPERTY
E
SciTegic.value.DoubleValue
30.759

@<SCITEGIC>MOL_PROPERTY
-TS
SciTegic.value.DoubleValue
32.119

@<SCITEGIC>MOL_PROPERTY
U+W
SciTegic.value.DoubleValue
10.192

@<SCITEGIC>MOL_PROPERTY
U
SciTegic.value.DoubleValue
12.424

@<SCITEGIC>MOL_PROPERTY
W
SciTegic.value.DoubleValue
-2.232

@<SCITEGIC>MOL_PROPERTY
W(PB)
SciTegic.value.DoubleValue
-4.375

@<SCITEGIC>MOL_PROPERTY
W(SA)
SciTegic.value.DoubleValue
2.143

@<SCITEGIC>MOL_PROPERTY
Valence
SciTegic.value.DoubleValue
18.277

@<SCITEGIC>MOL_PROPERTY
Coulomb
SciTegic.value.DoubleValue
-8.429

@<SCITEGIC>MOL_PROPERTY
VdW
SciTegic.value.DoubleValue
2.575

@<SCITEGIC>MOL_PROPERTY
VdW6
SciTegic.value.DoubleValue
-11.900

@<SCITEGIC>MOL_PROPERTY
VdW12
SciTegic.value.DoubleValue
14.476

@<SCITEGIC>MOL_PROPERTY
Bond
SciTegic.value.DoubleValue
0.331

@<SCITEGIC>MOL_PROPERTY
Angle
SciTegic.value.DoubleValue
3.180

@<SCITEGIC>MOL_PROPERTY
Pdih
SciTegic.value.DoubleValue
14.767

@<SCITEGIC>MOL_PROPERTY
Idih
SciTegic.value.DoubleValue
0.000

@<SCITEGIC>MOL_PROPERTY
Tether
SciTegic.value.DoubleValue
0.000

@<TRIPOS>MOLECULE
guest-s17_vm2.mol2 : vm2 ligand conformer 32
          25          25           1
SMALL
USER_CHARGES
 
@<TRIPOS>ATOM
       1    C1      21.070946   19.514220   21.009939 C.3        1 MOL1        -0.1684
       2    H1      21.458753   19.567231   19.983279 H          1 MOL1         0.0833
       3    H2      21.923391   19.769126   21.653199 H          1 MOL1         0.0833
       4    C2      20.591455   18.057252   21.248814 C.3        1 MOL1        -0.1684
       5    H3      19.495544   17.988828   21.240511 H          1 MOL1         0.0833
       6    H4      20.925136   17.456511   20.391476 H          1 MOL1         0.0833
       7    C3      21.162147   17.394952   22.525296 C.3        1 MOL1        -0.1684
       8    H5      22.223689   17.653050   22.640629 H          1 MOL1         0.0833
       9    H6      21.136784   16.305820   22.383168 H          1 MOL1         0.0833
      10    C4      20.394512   17.711111   23.832227 C.3        1 MOL1        -0.1760
      11    H7      19.369653   17.323532   23.765920 H          1 MOL1         0.0833
      12    H8      20.874589   17.139487   24.637543 H          1 MOL1         0.0833
      13    C5      20.367809   19.205763   24.226096 C.3        1 MOL1         0.1219
      14    H9      21.330166   19.659203   23.950542 H          1 MOL1         0.0790
      15    C6      19.209971   20.002230   23.568012 C.3        1 MOL1        -0.1760
      16    H10     18.496236   19.330828   23.074895 H          1 MOL1         0.0833
      17    H11     18.635931   20.505264   24.358034 H          1 MOL1         0.0833
      18    C7      19.683958   21.088184   22.572941 C.3        1 MOL1        -0.1684
      19    H12     20.571578   21.599928   22.969367 H          1 MOL1         0.0833
      20    H13     18.902259   21.857479   22.509423 H          1 MOL1         0.0833
      21    C8      19.958822   20.583052   21.136449 C.3        1 MOL1        -0.1684
      22    H14     20.253589   21.452630   20.533140 H          1 MOL1         0.0833
      23    H15     19.028423   20.213355   20.684420 H          1 MOL1         0.0833
      24    O1      20.224379   19.286235   25.640226 O.3        1 MOL1        -0.5508
      25    H16     21.004739   18.839145   26.029430 H          1 MOL1         0.3780
@<TRIPOS>BOND
    1     1     2    1
    2     1     3    1
    3     1     4    1
    4     4     5    1
    5     4     6    1
    6     4     7    1
    7     7     8    1
    8     7     9    1
    9     7    10    1
   10    10    11    1
   11    10    12    1
   12    10    13    1
   13    13    14    1
   14    13    15    1
   15    15    16    1
   16    15    17    1
   17    15    18    1
   18    18    19    1
   19    18    20    1
   20     1    21    1
   21    18    21    1
   22    21    22    1
   23    21    23    1
   24    13    24    1
   25    24    25    1
@<TRIPOS>SUBSTRUCTURE
       1 MOL1            1 RESIDUE      1      MOL     
@<SCITEGIC>MOL_PROPERTY
VM2 Rank
SciTegic.value.IntegerValue
32

@<SCITEGIC>MOL_PROPERTY
Conf_Id
SciTegic.value.IntegerValue
228

@<SCITEGIC>MOL_PROPERTY
Probability
SciTegic.value.DoubleValue
1.19

@<SCITEGIC>MOL_PROPERTY
Sum Probability
SciTegic.value.DoubleValue
80.96

@<SCITEGIC>MOL_PROPERTY
Delta G
SciTegic.value.DoubleValue
0.809

@<SCITEGIC>MOL_PROPERTY
G
SciTegic.value.DoubleValue
62.885

@<SCITEGIC>MOL_PROPERTY
E
SciTegic.value.DoubleValue
30.766

@<SCITEGIC>MOL_PROPERTY
-TS
SciTegic.value.DoubleValue
32.119

@<SCITEGIC>MOL_PROPERTY
U+W
SciTegic.value.DoubleValue
10.198

@<SCITEGIC>MOL_PROPERTY
U
SciTegic.value.DoubleValue
12.424

@<SCITEGIC>MOL_PROPERTY
W
SciTegic.value.DoubleValue
-2.225

@<SCITEGIC>MOL_PROPERTY
W(PB)
SciTegic.value.DoubleValue
-4.391

@<SCITEGIC>MOL_PROPERTY
W(SA)
SciTegic.value.DoubleValue
2.165

@<SCITEGIC>MOL_PROPERTY
Valence
SciTegic.value.DoubleValue
18.277

@<SCITEGIC>MOL_PROPERTY
Coulomb
SciTegic.value.DoubleValue
-8.429

@<SCITEGIC>MOL_PROPERTY
VdW
SciTegic.value.DoubleValue
2.575

@<SCITEGIC>MOL_PROPERTY
VdW6
SciTegic.value.DoubleValue
-11.900

@<SCITEGIC>MOL_PROPERTY
VdW12
SciTegic.value.DoubleValue
14.476

@<SCITEGIC>MOL_PROPERTY
Bond
SciTegic.value.DoubleValue
0.331

@<SCITEGIC>MOL_PROPERTY
Angle
SciTegic.value.DoubleValue
3.180

@<SCITEGIC>MOL_PROPERTY
Pdih
SciTegic.value.DoubleValue
14.766

@<SCITEGIC>MOL_PROPERTY
Idih
SciTegic.value.DoubleValue
0.000

@<SCITEGIC>MOL_PROPERTY
Tether
SciTegic.value.DoubleValue
0.000

@<TRIPOS>MOLECULE
guest-s17_vm2.mol2 : vm2 ligand conformer 33
          25          25           1
SMALL
USER_CHARGES
 
@<TRIPOS>ATOM
       1    C1      19.706588   18.990027   20.935781 C.3        1 MOL1        -0.1684
       2    H1      18.876460   18.675991   21.578737 H          1 MOL1         0.0833
       3    H2      19.331129   18.852679   19.912645 H          1 MOL1         0.0833
       4    C2      20.916676   18.039305   21.113358 C.3        1 MOL1        -0.1684
       5    H3      20.584684   17.029485   20.835999 H          1 MOL1         0.0833
       6    H4      21.696870   18.305192   20.387353 H          1 MOL1         0.0833
       7    C3      21.550230   17.958054   22.525779 C.3        1 MOL1        -0.1684
       8    H5      22.260461   18.778818   22.676992 H          1 MOL1         0.0833
       9    H6      22.169454   17.050939   22.551303 H          1 MOL1         0.0833
      10    C4      20.540463   17.888390   23.702677 C.3        1 MOL1        -0.1760
      11    H7      19.574736   17.486479   23.373088 H          1 MOL1         0.0833
      12    H8      20.926936   17.155318   24.423131 H          1 MOL1         0.0833
      13    C5      20.341104   19.216962   24.474082 C.3        1 MOL1         0.1219
      14    H9      21.330446   19.584866   24.782029 H          1 MOL1         0.0790
      15    C6      19.615794   20.354274   23.711302 C.3        1 MOL1        -0.1760
      16    H10     18.624211   20.022851   23.379379 H          1 MOL1         0.0833
      17    H11     19.425120   21.160911   24.431250 H          1 MOL1         0.0833
      18    C7      20.421102   20.970038   22.535878 C.3        1 MOL1        -0.1684
      19    H12     21.495938   20.815037   22.683174 H          1 MOL1         0.0833
      20    H13     20.294295   22.060891   22.567238 H          1 MOL1         0.0833
      21    C8      19.992376   20.501086   21.122020 C.3        1 MOL1        -0.1684
      22    H14     20.752337   20.818872   20.395409 H          1 MOL1         0.0833
      23    H15     19.076946   21.044720   20.851208 H          1 MOL1         0.0833
      24    O1      19.579668   18.924864   25.639123 O.3        1 MOL1        -0.5508
      25    H16     19.517913   19.756890   26.153000 H          1 MOL1         0.3780
@<TRIPOS>BOND
    1     1     2    1
    2     1     3    1
    3     1     4    1
    4     4     5    1
    5     4     6    1
    6     4     7    1
    7     7     8    1
    8     7     9    1
    9     7    10    1
   10    10    11    1
   11    10    12    1
   12    10    13    1
   13    13    14    1
   14    13    15    1
   15    15    16    1
   16    15    17    1
   17    15    18    1
   18    18    19    1
   19    18    20    1
   20     1    21    1
   21    18    21    1
   22    21    22    1
   23    21    23    1
   24    13    24    1
   25    24    25    1
@<TRIPOS>SUBSTRUCTURE
       1 MOL1            1 RESIDUE      1      MOL     
@<SCITEGIC>MOL_PROPERTY
VM2 Rank
SciTegic.value.IntegerValue
33

@<SCITEGIC>MOL_PROPERTY
Conf_Id
SciTegic.value.IntegerValue
24

@<SCITEGIC>MOL_PROPERTY
Probability
SciTegic.value.DoubleValue
1.16

@<SCITEGIC>MOL_PROPERTY
Sum Probability
SciTegic.value.DoubleValue
82.12

@<SCITEGIC>MOL_PROPERTY
Delta G
SciTegic.value.DoubleValue
0.824

@<SCITEGIC>MOL_PROPERTY
G
SciTegic.value.DoubleValue
62.899

@<SCITEGIC>MOL_PROPERTY
E
SciTegic.value.DoubleValue
30.245

@<SCITEGIC>MOL_PROPERTY
-TS
SciTegic.value.DoubleValue
32.654

@<SCITEGIC>MOL_PROPERTY
U+W
SciTegic.value.DoubleValue
9.678

@<SCITEGIC>MOL_PROPERTY
U
SciTegic.value.DoubleValue
11.876

@<SCITEGIC>MOL_PROPERTY
W
SciTegic.value.DoubleValue
-2.199

@<SCITEGIC>MOL_PROPERTY
W(PB)
SciTegic.value.DoubleValue
-4.335

@<SCITEGIC>MOL_PROPERTY
W(SA)
SciTegic.value.DoubleValue
2.137

@<SCITEGIC>MOL_PROPERTY
Valence
SciTegic.value.DoubleValue
17.153

@<SCITEGIC>MOL_PROPERTY
Coulomb
SciTegic.value.DoubleValue
-7.966

@<SCITEGIC>MOL_PROPERTY
VdW
SciTegic.value.DoubleValue
2.689

@<SCITEGIC>MOL_PROPERTY
VdW6
SciTegic.value.DoubleValue
-12.458

@<SCITEGIC>MOL_PROPERTY
VdW12
SciTegic.value.DoubleValue
15.147

@<SCITEGIC>MOL_PROPERTY
Bond
SciTegic.value.DoubleValue
0.421

@<SCITEGIC>MOL_PROPERTY
Angle
SciTegic.value.DoubleValue
5.258

@<SCITEGIC>MOL_PROPERTY
Pdih
SciTegic.value.DoubleValue
11.475

@<SCITEGIC>MOL_PROPERTY
Idih
SciTegic.value.DoubleValue
0.000

@<SCITEGIC>MOL_PROPERTY
Tether
SciTegic.value.DoubleValue
0.000

@<TRIPOS>MOLECULE
guest-s17_vm2.mol2 : vm2 ligand conformer 34
          25          25           1
SMALL
USER_CHARGES
 
@<TRIPOS>ATOM
       1    C1      21.051414   19.511199   20.999333 C.3        1 MOL1        -0.1684
       2    H1      21.356061   19.735772   19.967834 H          1 MOL1         0.0833
       3    H2      21.846363   19.927835   21.631800 H          1 MOL1         0.0833
       4    C2      21.001292   17.970835   21.138476 C.3        1 MOL1        -0.1684
       5    H3      21.812862   17.548732   20.530010 H          1 MOL1         0.0833
       6    H4      20.072172   17.582879   20.699302 H          1 MOL1         0.0833
       7    C3      21.172493   17.429427   22.577672 C.3        1 MOL1        -0.1684
       8    H5      22.167872   17.689792   22.962942 H          1 MOL1         0.0833
       9    H6      21.154101   16.332349   22.522471 H          1 MOL1         0.0833
      10    C4      20.082202   17.878689   23.579285 C.3        1 MOL1        -0.1760
      11    H7      19.099013   17.856453   23.092751 H          1 MOL1         0.0833
      12    H8      20.032947   17.118906   24.371044 H          1 MOL1         0.0833
      13    C5      20.357543   19.261880   24.226959 C.3        1 MOL1         0.1219
      14    H9      21.362415   19.608378   23.948512 H          1 MOL1         0.0790
      15    C6      19.333474   20.350253   23.832237 C.3        1 MOL1        -0.1760
      16    H10     18.326045   19.918085   23.776062 H          1 MOL1         0.0833
      17    H11     19.292730   21.100207   24.633888 H          1 MOL1         0.0833
      18    C7      19.654656   21.103087   22.518100 C.3        1 MOL1        -0.1684
      19    H12     20.598170   21.655904   22.622984 H          1 MOL1         0.0833
      20    H13     18.878425   21.867836   22.377934 H          1 MOL1         0.0833
      21    C8      19.694282   20.222762   21.246549 C.3        1 MOL1        -0.1684
      22    H14     19.506846   20.881067   20.387035 H          1 MOL1         0.0833
      23    H15     18.860726   19.507980   21.250316 H          1 MOL1         0.0833
      24    O1      20.316644   19.114867   25.641390 O.3        1 MOL1        -0.5508
      25    H16     19.407064   18.827479   25.863267 H          1 MOL1         0.3780
@<TRIPOS>BOND
    1     1     2    1
    2     1     3    1
    3     1     4    1
    4     4     5    1
    5     4     6    1
    6     4     7    1
    7     7     8    1
    8     7     9    1
    9     7    10    1
   10    10    11    1
   11    10    12    1
   12    10    13    1
   13    13    14    1
   14    13    15    1
   15    15    16    1
   16    15    17    1
   17    15    18    1
   18    18    19    1
   19    18    20    1
   20     1    21    1
   21    18    21    1
   22    21    22    1
   23    21    23    1
   24    13    24    1
   25    24    25    1
@<TRIPOS>SUBSTRUCTURE
       1 MOL1            1 RESIDUE      1      MOL     
@<SCITEGIC>MOL_PROPERTY
VM2 Rank
SciTegic.value.IntegerValue
34

@<SCITEGIC>MOL_PROPERTY
Conf_Id
SciTegic.value.IntegerValue
1884

@<SCITEGIC>MOL_PROPERTY
Probability
SciTegic.value.DoubleValue
1.16

@<SCITEGIC>MOL_PROPERTY
Sum Probability
SciTegic.value.DoubleValue
83.28

@<SCITEGIC>MOL_PROPERTY
Delta G
SciTegic.value.DoubleValue
0.825

@<SCITEGIC>MOL_PROPERTY
G
SciTegic.value.DoubleValue
62.900

@<SCITEGIC>MOL_PROPERTY
E
SciTegic.value.DoubleValue
30.812

@<SCITEGIC>MOL_PROPERTY
-TS
SciTegic.value.DoubleValue
32.088

@<SCITEGIC>MOL_PROPERTY
U+W
SciTegic.value.DoubleValue
10.244

@<SCITEGIC>MOL_PROPERTY
U
SciTegic.value.DoubleValue
12.337

@<SCITEGIC>MOL_PROPERTY
W
SciTegic.value.DoubleValue
-2.092

@<SCITEGIC>MOL_PROPERTY
W(PB)
SciTegic.value.DoubleValue
-4.240

@<SCITEGIC>MOL_PROPERTY
W(SA)
SciTegic.value.DoubleValue
2.147

@<SCITEGIC>MOL_PROPERTY
Valence
SciTegic.value.DoubleValue
18.677

@<SCITEGIC>MOL_PROPERTY
Coulomb
SciTegic.value.DoubleValue
-8.851

@<SCITEGIC>MOL_PROPERTY
VdW
SciTegic.value.DoubleValue
2.511

@<SCITEGIC>MOL_PROPERTY
VdW6
SciTegic.value.DoubleValue
-11.906

@<SCITEGIC>MOL_PROPERTY
VdW12
SciTegic.value.DoubleValue
14.417

@<SCITEGIC>MOL_PROPERTY
Bond
SciTegic.value.DoubleValue
0.323

@<SCITEGIC>MOL_PROPERTY
Angle
SciTegic.value.DoubleValue
3.226

@<SCITEGIC>MOL_PROPERTY
Pdih
SciTegic.value.DoubleValue
15.127

@<SCITEGIC>MOL_PROPERTY
Idih
SciTegic.value.DoubleValue
0.000

@<SCITEGIC>MOL_PROPERTY
Tether
SciTegic.value.DoubleValue
0.000

@<TRIPOS>MOLECULE
guest-s17_vm2.mol2 : vm2 ligand conformer 35
          25          25           1
SMALL
USER_CHARGES
 
@<TRIPOS>ATOM
       1    C1      20.023329   19.057933   20.852498 C.3        1 MOL1        -0.1684
       2    H1      19.058329   18.698654   21.233598 H          1 MOL1         0.0833
       3    H2      19.905957   19.096452   19.760723 H          1 MOL1         0.0833
       4    C2      21.141087   18.032449   21.158437 C.3        1 MOL1        -0.1684
       5    H3      21.065905   17.219396   20.423357 H          1 MOL1         0.0833
       6    H4      22.126547   18.488559   20.992659 H          1 MOL1         0.0833
       7    C3      21.085029   17.390870   22.565189 C.3        1 MOL1        -0.1684
       8    H5      21.906240   16.663965   22.629907 H          1 MOL1         0.0833
       9    H6      20.162046   16.805454   22.676502 H          1 MOL1         0.0833
      10    C4      21.228163   18.383956   23.742936 C.3        1 MOL1        -0.1760
      11    H7      21.625369   17.821024   24.598456 H          1 MOL1         0.0833
      12    H8      21.994202   19.132962   23.506199 H          1 MOL1         0.0833
      13    C5      19.893860   19.057451   24.160735 C.3        1 MOL1         0.1219
      14    H9      19.058286   18.592505   23.619435 H          1 MOL1         0.0790
      15    C6      19.858571   20.581779   23.907247 C.3        1 MOL1        -0.1760
      16    H10     19.151995   21.038166   24.613787 H          1 MOL1         0.0833
      17    H11     20.836650   21.025025   24.134692 H          1 MOL1         0.0833
      18    C7      19.413558   20.996796   22.483658 C.3        1 MOL1        -0.1684
      19    H12     19.393179   22.094781   22.451440 H          1 MOL1         0.0833
      20    H13     18.377743   20.676974   22.305822 H          1 MOL1         0.0833
      21    C8      20.325960   20.501242   21.336777 C.3        1 MOL1        -0.1684
      22    H14     21.382714   20.619849   21.610542 H          1 MOL1         0.0833
      23    H15     20.171414   21.174041   20.481956 H          1 MOL1         0.0833
      24    O1      19.694444   18.840523   25.552525 O.3        1 MOL1        -0.5508
      25    H16     20.438899   19.282228   26.010612 H          1 MOL1         0.3780
@<TRIPOS>BOND
    1     1     2    1
    2     1     3    1
    3     1     4    1
    4     4     5    1
    5     4     6    1
    6     4     7    1
    7     7     8    1
    8     7     9    1
    9     7    10    1
   10    10    11    1
   11    10    12    1
   12    10    13    1
   13    13    14    1
   14    13    15    1
   15    15    16    1
   16    15    17    1
   17    15    18    1
   18    18    19    1
   19    18    20    1
   20     1    21    1
   21    18    21    1
   22    21    22    1
   23    21    23    1
   24    13    24    1
   25    24    25    1
@<TRIPOS>SUBSTRUCTURE
       1 MOL1            1 RESIDUE      1      MOL     
@<SCITEGIC>MOL_PROPERTY
VM2 Rank
SciTegic.value.IntegerValue
35

@<SCITEGIC>MOL_PROPERTY
Conf_Id
SciTegic.value.IntegerValue
329

@<SCITEGIC>MOL_PROPERTY
Probability
SciTegic.value.DoubleValue
1.15

@<SCITEGIC>MOL_PROPERTY
Sum Probability
SciTegic.value.DoubleValue
84.43

@<SCITEGIC>MOL_PROPERTY
Delta G
SciTegic.value.DoubleValue
0.829

@<SCITEGIC>MOL_PROPERTY
G
SciTegic.value.DoubleValue
62.904

@<SCITEGIC>MOL_PROPERTY
E
SciTegic.value.DoubleValue
30.816

@<SCITEGIC>MOL_PROPERTY
-TS
SciTegic.value.DoubleValue
32.088

@<SCITEGIC>MOL_PROPERTY
U+W
SciTegic.value.DoubleValue
10.248

@<SCITEGIC>MOL_PROPERTY
U
SciTegic.value.DoubleValue
12.337

@<SCITEGIC>MOL_PROPERTY
W
SciTegic.value.DoubleValue
-2.088

@<SCITEGIC>MOL_PROPERTY
W(PB)
SciTegic.value.DoubleValue
-4.220

@<SCITEGIC>MOL_PROPERTY
W(SA)
SciTegic.value.DoubleValue
2.132

@<SCITEGIC>MOL_PROPERTY
Valence
SciTegic.value.DoubleValue
18.676

@<SCITEGIC>MOL_PROPERTY
Coulomb
SciTegic.value.DoubleValue
-8.851

@<SCITEGIC>MOL_PROPERTY
VdW
SciTegic.value.DoubleValue
2.511

@<SCITEGIC>MOL_PROPERTY
VdW6
SciTegic.value.DoubleValue
-11.906

@<SCITEGIC>MOL_PROPERTY
VdW12
SciTegic.value.DoubleValue
14.417

@<SCITEGIC>MOL_PROPERTY
Bond
SciTegic.value.DoubleValue
0.323

@<SCITEGIC>MOL_PROPERTY
Angle
SciTegic.value.DoubleValue
3.227

@<SCITEGIC>MOL_PROPERTY
Pdih
SciTegic.value.DoubleValue
15.127

@<SCITEGIC>MOL_PROPERTY
Idih
SciTegic.value.DoubleValue
0.000

@<SCITEGIC>MOL_PROPERTY
Tether
SciTegic.value.DoubleValue
0.000

@<TRIPOS>MOLECULE
guest-s17_vm2.mol2 : vm2 ligand conformer 36
          25          25           1
SMALL
USER_CHARGES
 
@<TRIPOS>ATOM
       1    C1      20.769593   19.249865   20.796728 C.3        1 MOL1        -0.1684
       2    H1      20.727574   19.083991   19.711571 H          1 MOL1         0.0833
       3    H2      21.828383   19.436709   21.016979 H          1 MOL1         0.0833
       4    C2      20.274470   17.952437   21.486255 C.3        1 MOL1        -0.1684
       5    H3      20.339655   17.131046   20.759722 H          1 MOL1         0.0833
       6    H4      19.206899   18.025700   21.722656 H          1 MOL1         0.0833
       7    C3      21.078854   17.520502   22.738568 C.3        1 MOL1        -0.1684
       8    H5      22.011858   17.053797   22.395023 H          1 MOL1         0.0833
       9    H6      20.525406   16.728006   23.260449 H          1 MOL1         0.0833
      10    C4      21.460257   18.631843   23.753280 C.3        1 MOL1        -0.1760
      11    H7      22.094038   18.170884   24.521885 H          1 MOL1         0.0833
      12    H8      22.107224   19.373184   23.272561 H          1 MOL1         0.0833
      13    C5      20.302865   19.348550   24.492169 C.3        1 MOL1         0.1219
      14    H9      20.772757   20.053397   25.193254 H          1 MOL1         0.0790
      15    C6      19.322793   20.169862   23.619685 C.3        1 MOL1        -0.1760
      16    H10     18.566896   19.518802   23.167028 H          1 MOL1         0.0833
      17    H11     18.759748   20.821632   24.300290 H          1 MOL1         0.0833
      18    C7      19.982977   21.069620   22.540526 C.3        1 MOL1        -0.1684
      19    H12     21.017096   21.319336   22.810646 H          1 MOL1         0.0833
      20    H13     19.448016   22.029199   22.537269 H          1 MOL1         0.0833
      21    C8      19.914491   20.508571   21.096401 C.3        1 MOL1        -0.1684
      22    H14     20.242074   21.304387   20.413637 H          1 MOL1         0.0833
      23    H15     18.867009   20.308100   20.832940 H          1 MOL1         0.0833
      24    O1      19.557699   18.391748   25.236388 O.3        1 MOL1        -0.5508
      25    H16     18.866871   18.887846   25.721836 H          1 MOL1         0.3780
@<TRIPOS>BOND
    1     1     2    1
    2     1     3    1
    3     1     4    1
    4     4     5    1
    5     4     6    1
    6     4     7    1
    7     7     8    1
    8     7     9    1
    9     7    10    1
   10    10    11    1
   11    10    12    1
   12    10    13    1
   13    13    14    1
   14    13    15    1
   15    15    16    1
   16    15    17    1
   17    15    18    1
   18    18    19    1
   19    18    20    1
   20     1    21    1
   21    18    21    1
   22    21    22    1
   23    21    23    1
   24    13    24    1
   25    24    25    1
@<TRIPOS>SUBSTRUCTURE
       1 MOL1            1 RESIDUE      1      MOL     
@<SCITEGIC>MOL_PROPERTY
VM2 Rank
SciTegic.value.IntegerValue
36

@<SCITEGIC>MOL_PROPERTY
Conf_Id
SciTegic.value.IntegerValue
1220

@<SCITEGIC>MOL_PROPERTY
Probability
SciTegic.value.DoubleValue
0.86

@<SCITEGIC>MOL_PROPERTY
Sum Probability
SciTegic.value.DoubleValue
85.29

@<SCITEGIC>MOL_PROPERTY
Delta G
SciTegic.value.DoubleValue
0.998

@<SCITEGIC>MOL_PROPERTY
G
SciTegic.value.DoubleValue
63.074

@<SCITEGIC>MOL_PROPERTY
E
SciTegic.value.DoubleValue
30.342

@<SCITEGIC>MOL_PROPERTY
-TS
SciTegic.value.DoubleValue
32.731

@<SCITEGIC>MOL_PROPERTY
U+W
SciTegic.value.DoubleValue
9.775

@<SCITEGIC>MOL_PROPERTY
U
SciTegic.value.DoubleValue
11.974

@<SCITEGIC>MOL_PROPERTY
W
SciTegic.value.DoubleValue
-2.199

@<SCITEGIC>MOL_PROPERTY
W(PB)
SciTegic.value.DoubleValue
-4.332

@<SCITEGIC>MOL_PROPERTY
W(SA)
SciTegic.value.DoubleValue
2.133

@<SCITEGIC>MOL_PROPERTY
Valence
SciTegic.value.DoubleValue
16.772

@<SCITEGIC>MOL_PROPERTY
Coulomb
SciTegic.value.DoubleValue
-7.357

@<SCITEGIC>MOL_PROPERTY
VdW
SciTegic.value.DoubleValue
2.559

@<SCITEGIC>MOL_PROPERTY
VdW6
SciTegic.value.DoubleValue
-12.877

@<SCITEGIC>MOL_PROPERTY
VdW12
SciTegic.value.DoubleValue
15.436

@<SCITEGIC>MOL_PROPERTY
Bond
SciTegic.value.DoubleValue
0.436

@<SCITEGIC>MOL_PROPERTY
Angle
SciTegic.value.DoubleValue
5.453

@<SCITEGIC>MOL_PROPERTY
Pdih
SciTegic.value.DoubleValue
10.883

@<SCITEGIC>MOL_PROPERTY
Idih
SciTegic.value.DoubleValue
0.000

@<SCITEGIC>MOL_PROPERTY
Tether
SciTegic.value.DoubleValue
0.000

@<TRIPOS>MOLECULE
guest-s17_vm2.mol2 : vm2 ligand conformer 37
          25          25           1
SMALL
USER_CHARGES
 
@<TRIPOS>ATOM
       1    C1      20.666135   19.502278   20.796517 C.3        1 MOL1        -0.1684
       2    H1      20.521519   19.584131   19.710592 H          1 MOL1         0.0833
       3    H2      21.541129   20.127072   21.016691 H          1 MOL1         0.0833
       4    C2      20.963111   18.011276   21.103213 C.3        1 MOL1        -0.1684
       5    H3      20.086460   17.403918   20.839735 H          1 MOL1         0.0833
       6    H4      21.762169   17.684010   20.424093 H          1 MOL1         0.0833
       7    C3      21.406991   17.672686   22.550034 C.3        1 MOL1        -0.1684
       8    H5      22.309368   18.236014   22.820413 H          1 MOL1         0.0833
       9    H6      21.716044   16.618425   22.552036 H          1 MOL1         0.0833
      10    C4      20.299479   17.837365   23.625343 C.3        1 MOL1        -0.1760
      11    H7      19.306564   17.753132   23.170172 H          1 MOL1         0.0833
      12    H8      20.367363   16.981716   24.309669 H          1 MOL1         0.0833
      13    C5      20.398684   19.115606   24.492855 C.3        1 MOL1         0.1219
      14    H9      21.228738   18.959295   25.196919 H          1 MOL1         0.0790
      15    C6      20.701313   20.440287   23.749335 C.3        1 MOL1        -0.1760
      16    H10     20.814848   21.218553   24.515054 H          1 MOL1         0.0833
      17    H11     21.684885   20.379783   23.271666 H          1 MOL1         0.0833
      18    C7      19.644404   20.943373   22.729512 C.3        1 MOL1        -0.1684
      19    H12     19.966805   21.934427   22.382813 H          1 MOL1         0.0833
      20    H13     18.689805   21.106561   23.247998 H          1 MOL1         0.0833
      21    C8      19.391953   20.061851   21.480077 C.3        1 MOL1        -0.1684
      22    H14     18.854144   20.681289   20.749432 H          1 MOL1         0.0833
      23    H15     18.694918   19.250314   21.717796 H          1 MOL1         0.0833
      24    O1      19.191930   19.258278   25.233115 O.3        1 MOL1        -0.5508
      25    H16     19.059969   18.419952   25.721800 H          1 MOL1         0.3780
@<TRIPOS>BOND
    1     1     2    1
    2     1     3    1
    3     1     4    1
    4     4     5    1
    5     4     6    1
    6     4     7    1
    7     7     8    1
    8     7     9    1
    9     7    10    1
   10    10    11    1
   11    10    12    1
   12    10    13    1
   13    13    14    1
   14    13    15    1
   15    15    16    1
   16    15    17    1
   17    15    18    1
   18    18    19    1
   19    18    20    1
   20     1    21    1
   21    18    21    1
   22    21    22    1
   23    21    23    1
   24    13    24    1
   25    24    25    1
@<TRIPOS>SUBSTRUCTURE
       1 MOL1            1 RESIDUE      1      MOL     
@<SCITEGIC>MOL_PROPERTY
VM2 Rank
SciTegic.value.IntegerValue
37

@<SCITEGIC>MOL_PROPERTY
Conf_Id
SciTegic.value.IntegerValue
1244

@<SCITEGIC>MOL_PROPERTY
Probability
SciTegic.value.DoubleValue
0.83

@<SCITEGIC>MOL_PROPERTY
Sum Probability
SciTegic.value.DoubleValue
86.12

@<SCITEGIC>MOL_PROPERTY
Delta G
SciTegic.value.DoubleValue
1.022

@<SCITEGIC>MOL_PROPERTY
G
SciTegic.value.DoubleValue
63.097

@<SCITEGIC>MOL_PROPERTY
E
SciTegic.value.DoubleValue
30.367

@<SCITEGIC>MOL_PROPERTY
-TS
SciTegic.value.DoubleValue
32.730

@<SCITEGIC>MOL_PROPERTY
U+W
SciTegic.value.DoubleValue
9.799

@<SCITEGIC>MOL_PROPERTY
U
SciTegic.value.DoubleValue
11.974

@<SCITEGIC>MOL_PROPERTY
W
SciTegic.value.DoubleValue
-2.175

@<SCITEGIC>MOL_PROPERTY
W(PB)
SciTegic.value.DoubleValue
-4.302

@<SCITEGIC>MOL_PROPERTY
W(SA)
SciTegic.value.DoubleValue
2.128

@<SCITEGIC>MOL_PROPERTY
Valence
SciTegic.value.DoubleValue
16.772

@<SCITEGIC>MOL_PROPERTY
Coulomb
SciTegic.value.DoubleValue
-7.357

@<SCITEGIC>MOL_PROPERTY
VdW
SciTegic.value.DoubleValue
2.559

@<SCITEGIC>MOL_PROPERTY
VdW6
SciTegic.value.DoubleValue
-12.877

@<SCITEGIC>MOL_PROPERTY
VdW12
SciTegic.value.DoubleValue
15.436

@<SCITEGIC>MOL_PROPERTY
Bond
SciTegic.value.DoubleValue
0.436

@<SCITEGIC>MOL_PROPERTY
Angle
SciTegic.value.DoubleValue
5.453

@<SCITEGIC>MOL_PROPERTY
Pdih
SciTegic.value.DoubleValue
10.883

@<SCITEGIC>MOL_PROPERTY
Idih
SciTegic.value.DoubleValue
0.000

@<SCITEGIC>MOL_PROPERTY
Tether
SciTegic.value.DoubleValue
0.000

@<TRIPOS>MOLECULE
guest-s17_vm2.mol2 : vm2 ligand conformer 38
          25          25           1
SMALL
USER_CHARGES
 
@<TRIPOS>ATOM
       1    C1      20.689421   19.360489   20.551781 C.3        1 MOL1        -0.1684
       2    H1      20.407512   19.228557   19.498165 H          1 MOL1         0.0833
       3    H2      21.757309   19.617322   20.540562 H          1 MOL1         0.0833
       4    C2      20.471472   18.010301   21.274292 C.3        1 MOL1        -0.1684
       5    H3      19.407856   17.867479   21.506992 H          1 MOL1         0.0833
       6    H4      20.721656   17.213895   20.559902 H          1 MOL1         0.0833
       7    C3      21.360442   17.803754   22.528512 C.3        1 MOL1        -0.1684
       8    H5      22.186580   18.526718   22.557657 H          1 MOL1         0.0833
       9    H6      21.839059   16.819363   22.432943 H          1 MOL1         0.0833
      10    C4      20.588687   17.812075   23.870521 C.3        1 MOL1        -0.1760
      11    H7      19.635907   17.277331   23.761670 H          1 MOL1         0.0833
      12    H8      21.176205   17.231245   24.593620 H          1 MOL1         0.0833
      13    C5      20.342304   19.207924   24.484795 C.3        1 MOL1         0.1219
      14    H9      21.310386   19.704066   24.643948 H          1 MOL1         0.0790
      15    C6      19.438836   20.133725   23.639458 C.3        1 MOL1        -0.1760
      16    H10     18.616740   19.555549   23.199367 H          1 MOL1         0.0833
      17    H11     18.960140   20.850716   24.320145 H          1 MOL1         0.0833
      18    C7      20.193048   20.954451   22.558945 C.3        1 MOL1        -0.1684
      19    H12     21.278507   20.934519   22.724350 H          1 MOL1         0.0833
      20    H13     19.899331   22.006334   22.679092 H          1 MOL1         0.0833
      21    C8      19.863987   20.545706   21.104457 C.3        1 MOL1        -0.1684
      22    H14     18.790266   20.337576   21.002484 H          1 MOL1         0.0833
      23    H15     20.059254   21.411849   20.457413 H          1 MOL1         0.0833
      24    O1      19.715804   19.014575   25.747238 O.3        1 MOL1        -0.5508
      25    H16     20.327332   18.471071   26.286655 H          1 MOL1         0.3780
@<TRIPOS>BOND
    1     1     2    1
    2     1     3    1
    3     1     4    1
    4     4     5    1
    5     4     6    1
    6     4     7    1
    7     7     8    1
    8     7     9    1
    9     7    10    1
   10    10    11    1
   11    10    12    1
   12    10    13    1
   13    13    14    1
   14    13    15    1
   15    15    16    1
   16    15    17    1
   17    15    18    1
   18    18    19    1
   19    18    20    1
   20     1    21    1
   21    18    21    1
   22    21    22    1
   23    21    23    1
   24    13    24    1
   25    24    25    1
@<TRIPOS>SUBSTRUCTURE
       1 MOL1            1 RESIDUE      1      MOL     
@<SCITEGIC>MOL_PROPERTY
VM2 Rank
SciTegic.value.IntegerValue
38

@<SCITEGIC>MOL_PROPERTY
Conf_Id
SciTegic.value.IntegerValue
1115

@<SCITEGIC>MOL_PROPERTY
Probability
SciTegic.value.DoubleValue
0.75

@<SCITEGIC>MOL_PROPERTY
Sum Probability
SciTegic.value.DoubleValue
86.87

@<SCITEGIC>MOL_PROPERTY
Delta G
SciTegic.value.DoubleValue
1.084

@<SCITEGIC>MOL_PROPERTY
G
SciTegic.value.DoubleValue
63.159

@<SCITEGIC>MOL_PROPERTY
E
SciTegic.value.DoubleValue
31.416

@<SCITEGIC>MOL_PROPERTY
-TS
SciTegic.value.DoubleValue
31.743

@<SCITEGIC>MOL_PROPERTY
U+W
SciTegic.value.DoubleValue
10.849

@<SCITEGIC>MOL_PROPERTY
U
SciTegic.value.DoubleValue
13.140

@<SCITEGIC>MOL_PROPERTY
W
SciTegic.value.DoubleValue
-2.291

@<SCITEGIC>MOL_PROPERTY
W(PB)
SciTegic.value.DoubleValue
-4.429

@<SCITEGIC>MOL_PROPERTY
W(SA)
SciTegic.value.DoubleValue
2.137

@<SCITEGIC>MOL_PROPERTY
Valence
SciTegic.value.DoubleValue
19.156

@<SCITEGIC>MOL_PROPERTY
Coulomb
SciTegic.value.DoubleValue
-8.157

@<SCITEGIC>MOL_PROPERTY
VdW
SciTegic.value.DoubleValue
2.141

@<SCITEGIC>MOL_PROPERTY
VdW6
SciTegic.value.DoubleValue
-11.576

@<SCITEGIC>MOL_PROPERTY
VdW12
SciTegic.value.DoubleValue
13.717

@<SCITEGIC>MOL_PROPERTY
Bond
SciTegic.value.DoubleValue
0.294

@<SCITEGIC>MOL_PROPERTY
Angle
SciTegic.value.DoubleValue
3.548

@<SCITEGIC>MOL_PROPERTY
Pdih
SciTegic.value.DoubleValue
15.314

@<SCITEGIC>MOL_PROPERTY
Idih
SciTegic.value.DoubleValue
0.000

@<SCITEGIC>MOL_PROPERTY
Tether
SciTegic.value.DoubleValue
0.000

@<TRIPOS>MOLECULE
guest-s17_vm2.mol2 : vm2 ligand conformer 39
          25          25           1
SMALL
USER_CHARGES
 
@<TRIPOS>ATOM
       1    C1      20.694883   19.362615   20.554932 C.3        1 MOL1        -0.1684
       2    H1      20.419688   19.232679   19.499290 H          1 MOL1         0.0833
       3    H2      21.762422   19.621083   20.550702 H          1 MOL1         0.0833
       4    C2      20.474478   18.010026   21.272443 C.3        1 MOL1        -0.1684
       5    H3      19.410109   17.865579   21.500640 H          1 MOL1         0.0833
       6    H4      20.727851   17.216273   20.556230 H          1 MOL1         0.0833
       7    C3      21.358646   17.798648   22.529243 C.3        1 MOL1        -0.1684
       8    H5      22.189168   18.516463   22.560294 H          1 MOL1         0.0833
       9    H6      21.831165   16.811134   22.435952 H          1 MOL1         0.0833
      10    C4      20.583629   17.812319   23.869454 C.3        1 MOL1        -0.1760
      11    H7      19.629522   17.280135   23.761843 H          1 MOL1         0.0833
      12    H8      21.166156   17.233961   24.598783 H          1 MOL1         0.0833
      13    C5      20.341693   19.208927   24.482242 C.3        1 MOL1         0.1219
      14    H9      21.312770   19.701097   24.635351 H          1 MOL1         0.0790
      15    C6      19.434268   20.132689   23.638263 C.3        1 MOL1        -0.1760
      16    H10     18.617652   19.549785   23.193735 H          1 MOL1         0.0833
      17    H11     18.946976   20.848865   24.313176 H          1 MOL1         0.0833
      18    C7      20.188022   20.956079   22.559732 C.3        1 MOL1        -0.1684
      19    H12     21.273297   20.939880   22.727110 H          1 MOL1         0.0833
      20    H13     19.890502   22.007092   22.678434 H          1 MOL1         0.0833
      21    C8      19.864165   20.545545   21.104644 C.3        1 MOL1        -0.1684
      22    H14     18.791350   20.334415   20.999299 H          1 MOL1         0.0833
      23    H15     20.059023   21.411962   20.457832 H          1 MOL1         0.0833
      24    O1      19.724217   19.016151   25.749046 O.3        1 MOL1        -0.5508
      25    H16     19.641684   19.901648   26.160763 H          1 MOL1         0.3780
@<TRIPOS>BOND
    1     1     2    1
    2     1     3    1
    3     1     4    1
    4     4     5    1
    5     4     6    1
    6     4     7    1
    7     7     8    1
    8     7     9    1
    9     7    10    1
   10    10    11    1
   11    10    12    1
   12    10    13    1
   13    13    14    1
   14    13    15    1
   15    15    16    1
   16    15    17    1
   17    15    18    1
   18    18    19    1
   19    18    20    1
   20     1    21    1
   21    18    21    1
   22    21    22    1
   23    21    23    1
   24    13    24    1
   25    24    25    1
@<TRIPOS>SUBSTRUCTURE
       1 MOL1            1 RESIDUE      1      MOL     
@<SCITEGIC>MOL_PROPERTY
VM2 Rank
SciTegic.value.IntegerValue
39

@<SCITEGIC>MOL_PROPERTY
Conf_Id
SciTegic.value.IntegerValue
1072

@<SCITEGIC>MOL_PROPERTY
Probability
SciTegic.value.DoubleValue
0.75

@<SCITEGIC>MOL_PROPERTY
Sum Probability
SciTegic.value.DoubleValue
87.62

@<SCITEGIC>MOL_PROPERTY
Delta G
SciTegic.value.DoubleValue
1.086

@<SCITEGIC>MOL_PROPERTY
G
SciTegic.value.DoubleValue
63.162

@<SCITEGIC>MOL_PROPERTY
E
SciTegic.value.DoubleValue
31.434

@<SCITEGIC>MOL_PROPERTY
-TS
SciTegic.value.DoubleValue
31.728

@<SCITEGIC>MOL_PROPERTY
U+W
SciTegic.value.DoubleValue
10.866

@<SCITEGIC>MOL_PROPERTY
U
SciTegic.value.DoubleValue
13.062

@<SCITEGIC>MOL_PROPERTY
W
SciTegic.value.DoubleValue
-2.195

@<SCITEGIC>MOL_PROPERTY
W(PB)
SciTegic.value.DoubleValue
-4.334

@<SCITEGIC>MOL_PROPERTY
W(SA)
SciTegic.value.DoubleValue
2.139

@<SCITEGIC>MOL_PROPERTY
Valence
SciTegic.value.DoubleValue
19.173

@<SCITEGIC>MOL_PROPERTY
Coulomb
SciTegic.value.DoubleValue
-8.232

@<SCITEGIC>MOL_PROPERTY
VdW
SciTegic.value.DoubleValue
2.120

@<SCITEGIC>MOL_PROPERTY
VdW6
SciTegic.value.DoubleValue
-11.562

@<SCITEGIC>MOL_PROPERTY
VdW12
SciTegic.value.DoubleValue
13.683

@<SCITEGIC>MOL_PROPERTY
Bond
SciTegic.value.DoubleValue
0.293

@<SCITEGIC>MOL_PROPERTY
Angle
SciTegic.value.DoubleValue
3.543

@<SCITEGIC>MOL_PROPERTY
Pdih
SciTegic.value.DoubleValue
15.336

@<SCITEGIC>MOL_PROPERTY
Idih
SciTegic.value.DoubleValue
0.000

@<SCITEGIC>MOL_PROPERTY
Tether
SciTegic.value.DoubleValue
0.000

@<TRIPOS>MOLECULE
guest-s17_vm2.mol2 : vm2 ligand conformer 40
          25          25           1
SMALL
USER_CHARGES
 
@<TRIPOS>ATOM
       1    C1      20.694616   19.362216   20.554741 C.3        1 MOL1        -0.1684
       2    H1      20.418895   19.232155   19.499250 H          1 MOL1         0.0833
       3    H2      21.761959   19.621520   20.549950 H          1 MOL1         0.0833
       4    C2      20.475508   18.009630   21.272311 C.3        1 MOL1        -0.1684
       5    H3      19.411107   17.864146   21.499590 H          1 MOL1         0.0833
       6    H4      20.730320   17.216019   20.556433 H          1 MOL1         0.0833
       7    C3      21.359436   17.800064   22.529504 C.3        1 MOL1        -0.1684
       8    H5      22.187820   18.520359   22.561706 H          1 MOL1         0.0833
       9    H6      21.835107   16.814066   22.435866 H          1 MOL1         0.0833
      10    C4      20.582971   17.810808   23.868508 C.3        1 MOL1        -0.1760
      11    H7      19.631623   17.274874   23.755876 H          1 MOL1         0.0833
      12    H8      21.167376   17.232792   24.596912 H          1 MOL1         0.0833
      13    C5      20.340505   19.207517   24.481462 C.3        1 MOL1         0.1219
      14    H9      21.310668   19.700173   24.637511 H          1 MOL1         0.0790
      15    C6      19.435024   20.135597   23.640555 C.3        1 MOL1        -0.1760
      16    H10     18.611198   19.561276   23.198341 H          1 MOL1         0.0833
      17    H11     18.960685   20.854815   24.322178 H          1 MOL1         0.0833
      18    C7      20.188495   20.956136   22.559664 C.3        1 MOL1        -0.1684
      19    H12     21.273769   20.940047   22.727045 H          1 MOL1         0.0833
      20    H13     19.891435   22.007420   22.677073 H          1 MOL1         0.0833
      21    C8      19.863270   20.544235   21.105194 C.3        1 MOL1        -0.1684
      22    H14     18.790565   20.332049   21.001013 H          1 MOL1         0.0833
      23    H15     20.056463   21.410570   20.457766 H          1 MOL1         0.0833
      24    O1      19.724175   19.016797   25.748060 O.3        1 MOL1        -0.5508
      25    H16     18.862374   18.585492   25.574109 H          1 MOL1         0.3780
@<TRIPOS>BOND
    1     1     2    1
    2     1     3    1
    3     1     4    1
    4     4     5    1
    5     4     6    1
    6     4     7    1
    7     7     8    1
    8     7     9    1
    9     7    10    1
   10    10    11    1
   11    10    12    1
   12    10    13    1
   13    13    14    1
   14    13    15    1
   15    15    16    1
   16    15    17    1
   17    15    18    1
   18    18    19    1
   19    18    20    1
   20     1    21    1
   21    18    21    1
   22    21    22    1
   23    21    23    1
   24    13    24    1
   25    24    25    1
@<TRIPOS>SUBSTRUCTURE
       1 MOL1            1 RESIDUE      1      MOL     
@<SCITEGIC>MOL_PROPERTY
VM2 Rank
SciTegic.value.IntegerValue
40

@<SCITEGIC>MOL_PROPERTY
Conf_Id
SciTegic.value.IntegerValue
593

@<SCITEGIC>MOL_PROPERTY
Probability
SciTegic.value.DoubleValue
0.68

@<SCITEGIC>MOL_PROPERTY
Sum Probability
SciTegic.value.DoubleValue
88.30

@<SCITEGIC>MOL_PROPERTY
Delta G
SciTegic.value.DoubleValue
1.146

@<SCITEGIC>MOL_PROPERTY
G
SciTegic.value.DoubleValue
63.221

@<SCITEGIC>MOL_PROPERTY
E
SciTegic.value.DoubleValue
31.524

@<SCITEGIC>MOL_PROPERTY
-TS
SciTegic.value.DoubleValue
31.697

@<SCITEGIC>MOL_PROPERTY
U+W
SciTegic.value.DoubleValue
10.956

@<SCITEGIC>MOL_PROPERTY
U
SciTegic.value.DoubleValue
12.792

@<SCITEGIC>MOL_PROPERTY
W
SciTegic.value.DoubleValue
-1.835

@<SCITEGIC>MOL_PROPERTY
W(PB)
SciTegic.value.DoubleValue
-3.980

@<SCITEGIC>MOL_PROPERTY
W(SA)
SciTegic.value.DoubleValue
2.145

@<SCITEGIC>MOL_PROPERTY
Valence
SciTegic.value.DoubleValue
19.529

@<SCITEGIC>MOL_PROPERTY
Coulomb
SciTegic.value.DoubleValue
-8.823

@<SCITEGIC>MOL_PROPERTY
VdW
SciTegic.value.DoubleValue
2.086

@<SCITEGIC>MOL_PROPERTY
VdW6
SciTegic.value.DoubleValue
-11.579

@<SCITEGIC>MOL_PROPERTY
VdW12
SciTegic.value.DoubleValue
13.665

@<SCITEGIC>MOL_PROPERTY
Bond
SciTegic.value.DoubleValue
0.287

@<SCITEGIC>MOL_PROPERTY
Angle
SciTegic.value.DoubleValue
3.589

@<SCITEGIC>MOL_PROPERTY
Pdih
SciTegic.value.DoubleValue
15.653

@<SCITEGIC>MOL_PROPERTY
Idih
SciTegic.value.DoubleValue
0.000

@<SCITEGIC>MOL_PROPERTY
Tether
SciTegic.value.DoubleValue
0.000

@<TRIPOS>MOLECULE
guest-s17_vm2.mol2 : vm2 ligand conformer 41
          25          25           1
SMALL
USER_CHARGES
 
@<TRIPOS>ATOM
       1    C1      19.892754   19.017951   21.011274 C.3        1 MOL1        -0.1684
       2    H1      18.996642   18.566149   21.454593 H          1 MOL1         0.0833
       3    H2      19.772516   18.883419   19.927309 H          1 MOL1         0.0833
       4    C2      21.181896   18.262830   21.420352 C.3        1 MOL1        -0.1684
       5    H3      21.435027   17.582720   20.595226 H          1 MOL1         0.0833
       6    H4      22.036952   18.947048   21.503404 H          1 MOL1         0.0833
       7    C3      21.053716   17.398991   22.694907 C.3        1 MOL1        -0.1684
       8    H5      21.795108   16.591804   22.618514 H          1 MOL1         0.0833
       9    H6      20.080629   16.890876   22.724148 H          1 MOL1         0.0833
      10    C4      21.332827   18.139854   24.027642 C.3        1 MOL1        -0.1760
      11    H7      21.387342   17.379897   24.818144 H          1 MOL1         0.0833
      12    H8      22.332207   18.592541   23.994375 H          1 MOL1         0.0833
      13    C5      20.301507   19.196645   24.488313 C.3        1 MOL1         0.1219
      14    H9      20.483181   19.339072   25.563477 H          1 MOL1         0.0790
      15    C6      20.472405   20.597106   23.837944 C.3        1 MOL1        -0.1760
      16    H10     20.319314   21.328006   24.642706 H          1 MOL1         0.0833
      17    H11     21.512405   20.743488   23.519441 H          1 MOL1         0.0833
      18    C7      19.510188   20.994677   22.684891 C.3        1 MOL1        -0.1684
      19    H12     19.471131   22.092418   22.663439 H          1 MOL1         0.0833
      20    H13     18.478467   20.684635   22.895010 H          1 MOL1         0.0833
      21    C8      19.934406   20.541082   21.270092 C.3        1 MOL1        -0.1684
      22    H14     19.247426   21.018151   20.557547 H          1 MOL1         0.0833
      23    H15     20.928608   20.940962   21.028796 H          1 MOL1         0.0833
      24    O1      18.984301   18.693864   24.324584 O.3        1 MOL1        -0.5508
      25    H16     18.873781   18.626883   23.355396 H          1 MOL1         0.3780
@<TRIPOS>BOND
    1     1     2    1
    2     1     3    1
    3     1     4    1
    4     4     5    1
    5     4     6    1
    6     4     7    1
    7     7     8    1
    8     7     9    1
    9     7    10    1
   10    10    11    1
   11    10    12    1
   12    10    13    1
   13    13    14    1
   14    13    15    1
   15    15    16    1
   16    15    17    1
   17    15    18    1
   18    18    19    1
   19    18    20    1
   20     1    21    1
   21    18    21    1
   22    21    22    1
   23    21    23    1
   24    13    24    1
   25    24    25    1
@<TRIPOS>SUBSTRUCTURE
       1 MOL1            1 RESIDUE      1      MOL     
@<SCITEGIC>MOL_PROPERTY
VM2 Rank
SciTegic.value.IntegerValue
41

@<SCITEGIC>MOL_PROPERTY
Conf_Id
SciTegic.value.IntegerValue
1565

@<SCITEGIC>MOL_PROPERTY
Probability
SciTegic.value.DoubleValue
0.62

@<SCITEGIC>MOL_PROPERTY
Sum Probability
SciTegic.value.DoubleValue
88.92

@<SCITEGIC>MOL_PROPERTY
Delta G
SciTegic.value.DoubleValue
1.197

@<SCITEGIC>MOL_PROPERTY
G
SciTegic.value.DoubleValue
63.272

@<SCITEGIC>MOL_PROPERTY
E
SciTegic.value.DoubleValue
31.218

@<SCITEGIC>MOL_PROPERTY
-TS
SciTegic.value.DoubleValue
32.054

@<SCITEGIC>MOL_PROPERTY
U+W
SciTegic.value.DoubleValue
10.651

@<SCITEGIC>MOL_PROPERTY
U
SciTegic.value.DoubleValue
11.809

@<SCITEGIC>MOL_PROPERTY
W
SciTegic.value.DoubleValue
-1.158

@<SCITEGIC>MOL_PROPERTY
W(PB)
SciTegic.value.DoubleValue
-3.264

@<SCITEGIC>MOL_PROPERTY
W(SA)
SciTegic.value.DoubleValue
2.105

@<SCITEGIC>MOL_PROPERTY
Valence
SciTegic.value.DoubleValue
19.951

@<SCITEGIC>MOL_PROPERTY
Coulomb
SciTegic.value.DoubleValue
-10.074

@<SCITEGIC>MOL_PROPERTY
VdW
SciTegic.value.DoubleValue
1.932

@<SCITEGIC>MOL_PROPERTY
VdW6
SciTegic.value.DoubleValue
-12.999

@<SCITEGIC>MOL_PROPERTY
VdW12
SciTegic.value.DoubleValue
14.931

@<SCITEGIC>MOL_PROPERTY
Bond
SciTegic.value.DoubleValue
0.347

@<SCITEGIC>MOL_PROPERTY
Angle
SciTegic.value.DoubleValue
6.175

@<SCITEGIC>MOL_PROPERTY
Pdih
SciTegic.value.DoubleValue
13.428

@<SCITEGIC>MOL_PROPERTY
Idih
SciTegic.value.DoubleValue
0.000

@<SCITEGIC>MOL_PROPERTY
Tether
SciTegic.value.DoubleValue
0.000

@<TRIPOS>MOLECULE
guest-s17_vm2.mol2 : vm2 ligand conformer 42
          25          25           1
SMALL
USER_CHARGES
 
@<TRIPOS>ATOM
       1    C1      21.252880   19.586760   21.261581 C.3        1 MOL1        -0.1684
       2    H1      21.754768   19.712409   20.292119 H          1 MOL1         0.0833
       3    H2      22.017072   19.829309   22.010484 H          1 MOL1         0.0833
       4    C2      20.806982   18.106031   21.351332 C.3        1 MOL1        -0.1684
       5    H3      19.748550   17.990006   21.082198 H          1 MOL1         0.0833
       6    H4      21.363173   17.552657   20.581990 H          1 MOL1         0.0833
       7    C3      21.100484   17.418561   22.703506 C.3        1 MOL1        -0.1684
       8    H5      22.080127   17.727095   23.092148 H          1 MOL1         0.0833
       9    H6      21.196991   16.341677   22.508430 H          1 MOL1         0.0833
      10    C4      19.999286   17.582174   23.782190 C.3        1 MOL1        -0.1760
      11    H7      19.042012   17.216585   23.388792 H          1 MOL1         0.0833
      12    H8      20.248722   16.903728   24.608564 H          1 MOL1         0.0833
      13    C5      19.802825   18.988099   24.396539 C.3        1 MOL1         0.1219
      14    H9      19.257907   18.826657   25.337958 H          1 MOL1         0.0790
      15    C6      18.919992   19.947905   23.552232 C.3        1 MOL1        -0.1760
      16    H10     18.234901   19.372887   22.916247 H          1 MOL1         0.0833
      17    H11     18.269421   20.470773   24.265434 H          1 MOL1         0.0833
      18    C7      19.625901   21.043050   22.706180 C.3        1 MOL1        -0.1684
      19    H12     20.451832   21.509816   23.258169 H          1 MOL1         0.0833
      20    H13     18.898457   21.852929   22.558052 H          1 MOL1         0.0833
      21    C8      20.092861   20.607338   21.299245 C.3        1 MOL1        -0.1684
      22    H14     20.429395   21.512448   20.775053 H          1 MOL1         0.0833
      23    H15     19.238843   20.234279   20.717829 H          1 MOL1         0.0833
      24    O1      21.062790   19.563082   24.707194 O.3        1 MOL1        -0.5508
      25    H16     21.476689   19.715335   23.834537 H          1 MOL1         0.3780
@<TRIPOS>BOND
    1     1     2    1
    2     1     3    1
    3     1     4    1
    4     4     5    1
    5     4     6    1
    6     4     7    1
    7     7     8    1
    8     7     9    1
    9     7    10    1
   10    10    11    1
   11    10    12    1
   12    10    13    1
   13    13    14    1
   14    13    15    1
   15    15    16    1
   16    15    17    1
   17    15    18    1
   18    18    19    1
   19    18    20    1
   20     1    21    1
   21    18    21    1
   22    21    22    1
   23    21    23    1
   24    13    24    1
   25    24    25    1
@<TRIPOS>SUBSTRUCTURE
       1 MOL1            1 RESIDUE      1      MOL     
@<SCITEGIC>MOL_PROPERTY
VM2 Rank
SciTegic.value.IntegerValue
42

@<SCITEGIC>MOL_PROPERTY
Conf_Id
SciTegic.value.IntegerValue
331

@<SCITEGIC>MOL_PROPERTY
Probability
SciTegic.value.DoubleValue
0.58

@<SCITEGIC>MOL_PROPERTY
Sum Probability
SciTegic.value.DoubleValue
89.50

@<SCITEGIC>MOL_PROPERTY
Delta G
SciTegic.value.DoubleValue
1.236

@<SCITEGIC>MOL_PROPERTY
G
SciTegic.value.DoubleValue
63.312

@<SCITEGIC>MOL_PROPERTY
E
SciTegic.value.DoubleValue
31.258

@<SCITEGIC>MOL_PROPERTY
-TS
SciTegic.value.DoubleValue
32.054

@<SCITEGIC>MOL_PROPERTY
U+W
SciTegic.value.DoubleValue
10.691

@<SCITEGIC>MOL_PROPERTY
U
SciTegic.value.DoubleValue
11.809

@<SCITEGIC>MOL_PROPERTY
W
SciTegic.value.DoubleValue
-1.118

@<SCITEGIC>MOL_PROPERTY
W(PB)
SciTegic.value.DoubleValue
-3.244

@<SCITEGIC>MOL_PROPERTY
W(SA)
SciTegic.value.DoubleValue
2.126

@<SCITEGIC>MOL_PROPERTY
Valence
SciTegic.value.DoubleValue
19.951

@<SCITEGIC>MOL_PROPERTY
Coulomb
SciTegic.value.DoubleValue
-10.074

@<SCITEGIC>MOL_PROPERTY
VdW
SciTegic.value.DoubleValue
1.932

@<SCITEGIC>MOL_PROPERTY
VdW6
SciTegic.value.DoubleValue
-12.998

@<SCITEGIC>MOL_PROPERTY
VdW12
SciTegic.value.DoubleValue
14.930

@<SCITEGIC>MOL_PROPERTY
Bond
SciTegic.value.DoubleValue
0.347

@<SCITEGIC>MOL_PROPERTY
Angle
SciTegic.value.DoubleValue
6.175

@<SCITEGIC>MOL_PROPERTY
Pdih
SciTegic.value.DoubleValue
13.428

@<SCITEGIC>MOL_PROPERTY
Idih
SciTegic.value.DoubleValue
0.000

@<SCITEGIC>MOL_PROPERTY
Tether
SciTegic.value.DoubleValue
0.000

@<TRIPOS>MOLECULE
guest-s17_vm2.mol2 : vm2 ligand conformer 43
          25          25           1
SMALL
USER_CHARGES
 
@<TRIPOS>ATOM
       1    C1      21.053862   19.528451   20.987466 C.3        1 MOL1        -0.1684
       2    H1      21.409979   19.680502   19.959534 H          1 MOL1         0.0833
       3    H2      21.876187   19.880985   21.620278 H          1 MOL1         0.0833
       4    C2      20.839522   18.006614   21.180756 C.3        1 MOL1        -0.1684
       5    H3      20.084047   17.652896   20.466255 H          1 MOL1         0.0833
       6    H4      21.774422   17.503636   20.898397 H          1 MOL1         0.0833
       7    C3      20.451842   17.523880   22.602037 C.3        1 MOL1        -0.1684
       8    H5      20.625893   16.439918   22.634740 H          1 MOL1         0.0833
       9    H6      19.373728   17.630226   22.764875 H          1 MOL1         0.0833
      10    C4      21.250102   18.175457   23.765674 C.3        1 MOL1        -0.1760
      11    H7      21.475635   17.386779   24.495258 H          1 MOL1         0.0833
      12    H8      22.229186   18.523367   23.415198 H          1 MOL1         0.0833
      13    C5      20.532034   19.308011   24.547060 C.3        1 MOL1         0.1219
      14    H9      21.213636   19.601315   25.358512 H          1 MOL1         0.0790
      15    C6      20.208907   20.606405   23.760669 C.3        1 MOL1        -0.1760
      16    H10     19.802853   21.326224   24.483144 H          1 MOL1         0.0833
      17    H11     21.137954   21.066751   23.403385 H          1 MOL1         0.0833
      18    C7      19.184624   20.473472   22.599510 C.3        1 MOL1        -0.1684
      19    H12     18.516701   21.344902   22.630972 H          1 MOL1         0.0833
      20    H13     18.521784   19.616257   22.760839 H          1 MOL1         0.0833
      21    C8      19.802825   20.421961   21.178852 C.3        1 MOL1        -0.1684
      22    H14     19.026768   20.117659   20.463636 H          1 MOL1         0.0833
      23    H15     20.082586   21.446024   20.896361 H          1 MOL1         0.0833
      24    O1      19.340281   18.798750   25.137977 O.3        1 MOL1        -0.5508
      25    H16     18.903364   19.553956   25.581453 H          1 MOL1         0.3780
@<TRIPOS>BOND
    1     1     2    1
    2     1     3    1
    3     1     4    1
    4     4     5    1
    5     4     6    1
    6     4     7    1
    7     7     8    1
    8     7     9    1
    9     7    10    1
   10    10    11    1
   11    10    12    1
   12    10    13    1
   13    13    14    1
   14    13    15    1
   15    15    16    1
   16    15    17    1
   17    15    18    1
   18    18    19    1
   19    18    20    1
   20     1    21    1
   21    18    21    1
   22    21    22    1
   23    21    23    1
   24    13    24    1
   25    24    25    1
@<TRIPOS>SUBSTRUCTURE
       1 MOL1            1 RESIDUE      1      MOL     
@<SCITEGIC>MOL_PROPERTY
VM2 Rank
SciTegic.value.IntegerValue
43

@<SCITEGIC>MOL_PROPERTY
Conf_Id
SciTegic.value.IntegerValue
835

@<SCITEGIC>MOL_PROPERTY
Probability
SciTegic.value.DoubleValue
0.58

@<SCITEGIC>MOL_PROPERTY
Sum Probability
SciTegic.value.DoubleValue
90.07

@<SCITEGIC>MOL_PROPERTY
Delta G
SciTegic.value.DoubleValue
1.238

@<SCITEGIC>MOL_PROPERTY
G
SciTegic.value.DoubleValue
63.314

@<SCITEGIC>MOL_PROPERTY
E
SciTegic.value.DoubleValue
30.500

@<SCITEGIC>MOL_PROPERTY
-TS
SciTegic.value.DoubleValue
32.814

@<SCITEGIC>MOL_PROPERTY
U+W
SciTegic.value.DoubleValue
9.932

@<SCITEGIC>MOL_PROPERTY
U
SciTegic.value.DoubleValue
12.094

@<SCITEGIC>MOL_PROPERTY
W
SciTegic.value.DoubleValue
-2.161

@<SCITEGIC>MOL_PROPERTY
W(PB)
SciTegic.value.DoubleValue
-4.282

@<SCITEGIC>MOL_PROPERTY
W(SA)
SciTegic.value.DoubleValue
2.121

@<SCITEGIC>MOL_PROPERTY
Valence
SciTegic.value.DoubleValue
16.788

@<SCITEGIC>MOL_PROPERTY
Coulomb
SciTegic.value.DoubleValue
-7.596

@<SCITEGIC>MOL_PROPERTY
VdW
SciTegic.value.DoubleValue
2.902

@<SCITEGIC>MOL_PROPERTY
VdW6
SciTegic.value.DoubleValue
-13.303

@<SCITEGIC>MOL_PROPERTY
VdW12
SciTegic.value.DoubleValue
16.205

@<SCITEGIC>MOL_PROPERTY
Bond
SciTegic.value.DoubleValue
0.495

@<SCITEGIC>MOL_PROPERTY
Angle
SciTegic.value.DoubleValue
5.823

@<SCITEGIC>MOL_PROPERTY
Pdih
SciTegic.value.DoubleValue
10.470

@<SCITEGIC>MOL_PROPERTY
Idih
SciTegic.value.DoubleValue
0.000

@<SCITEGIC>MOL_PROPERTY
Tether
SciTegic.value.DoubleValue
0.000

@<TRIPOS>MOLECULE
guest-s17_vm2.mol2 : vm2 ligand conformer 44
          25          25           1
SMALL
USER_CHARGES
 
@<TRIPOS>ATOM
       1    C1      21.054069   19.527599   20.987404 C.3        1 MOL1        -0.1684
       2    H1      21.410364   19.679020   19.959440 H          1 MOL1         0.0833
       3    H2      21.875500   19.882347   21.620140 H          1 MOL1         0.0833
       4    C2      20.840234   18.005558   21.181699 C.3        1 MOL1        -0.1684
       5    H3      20.085688   17.650981   20.466624 H          1 MOL1         0.0833
       6    H4      21.775635   17.502596   20.900933 H          1 MOL1         0.0833
       7    C3      20.450759   17.524704   22.603031 C.3        1 MOL1        -0.1684
       8    H5      20.622632   16.440350   22.636814 H          1 MOL1         0.0833
       9    H6      19.372607   17.634735   22.763299 H          1 MOL1         0.0833
      10    C4      21.251618   18.178199   23.763498 C.3        1 MOL1        -0.1760
      11    H7      21.493354   17.389532   24.487759 H          1 MOL1         0.0833
      12    H8      22.225485   18.534098   23.406260 H          1 MOL1         0.0833
      13    C5      20.532071   19.308227   24.547042 C.3        1 MOL1         0.1219
      14    H9      21.213481   19.602085   25.358456 H          1 MOL1         0.0790
      15    C6      20.206014   20.607256   23.762779 C.3        1 MOL1        -0.1760
      16    H10     19.788903   21.315390   24.490609 H          1 MOL1         0.0833
      17    H11     21.132818   21.076866   23.412087 H          1 MOL1         0.0833
      18    C7      19.184749   20.474828   22.598602 C.3        1 MOL1        -0.1684
      19    H12     18.518626   21.347579   22.629024 H          1 MOL1         0.0833
      20    H13     18.519273   19.620198   22.762639 H          1 MOL1         0.0833
      21    C8      19.802865   20.420621   21.177913 C.3        1 MOL1        -0.1684
      22    H14     19.026679   20.114998   20.463419 H          1 MOL1         0.0833
      23    H15     20.082230   21.444308   20.893708 H          1 MOL1         0.0833
      24    O1      19.341621   18.796008   25.138032 O.3        1 MOL1        -0.5508
      25    H16     19.587928   17.959953   25.583279 H          1 MOL1         0.3780
@<TRIPOS>BOND
    1     1     2    1
    2     1     3    1
    3     1     4    1
    4     4     5    1
    5     4     6    1
    6     4     7    1
    7     7     8    1
    8     7     9    1
    9     7    10    1
   10    10    11    1
   11    10    12    1
   12    10    13    1
   13    13    14    1
   14    13    15    1
   15    15    16    1
   16    15    17    1
   17    15    18    1
   18    18    19    1
   19    18    20    1
   20     1    21    1
   21    18    21    1
   22    21    22    1
   23    21    23    1
   24    13    24    1
   25    24    25    1
@<TRIPOS>SUBSTRUCTURE
       1 MOL1            1 RESIDUE      1      MOL     
@<SCITEGIC>MOL_PROPERTY
VM2 Rank
SciTegic.value.IntegerValue
44

@<SCITEGIC>MOL_PROPERTY
Conf_Id
SciTegic.value.IntegerValue
1562

@<SCITEGIC>MOL_PROPERTY
Probability
SciTegic.value.DoubleValue
0.56

@<SCITEGIC>MOL_PROPERTY
Sum Probability
SciTegic.value.DoubleValue
90.63

@<SCITEGIC>MOL_PROPERTY
Delta G
SciTegic.value.DoubleValue
1.261

@<SCITEGIC>MOL_PROPERTY
G
SciTegic.value.DoubleValue
63.336

@<SCITEGIC>MOL_PROPERTY
E
SciTegic.value.DoubleValue
30.523

@<SCITEGIC>MOL_PROPERTY
-TS
SciTegic.value.DoubleValue
32.814

@<SCITEGIC>MOL_PROPERTY
U+W
SciTegic.value.DoubleValue
9.955

@<SCITEGIC>MOL_PROPERTY
U
SciTegic.value.DoubleValue
12.093

@<SCITEGIC>MOL_PROPERTY
W
SciTegic.value.DoubleValue
-2.138

@<SCITEGIC>MOL_PROPERTY
W(PB)
SciTegic.value.DoubleValue
-4.252

@<SCITEGIC>MOL_PROPERTY
W(SA)
SciTegic.value.DoubleValue
2.114

@<SCITEGIC>MOL_PROPERTY
Valence
SciTegic.value.DoubleValue
16.788

@<SCITEGIC>MOL_PROPERTY
Coulomb
SciTegic.value.DoubleValue
-7.596

@<SCITEGIC>MOL_PROPERTY
VdW
SciTegic.value.DoubleValue
2.902

@<SCITEGIC>MOL_PROPERTY
VdW6
SciTegic.value.DoubleValue
-13.303

@<SCITEGIC>MOL_PROPERTY
VdW12
SciTegic.value.DoubleValue
16.205

@<SCITEGIC>MOL_PROPERTY
Bond
SciTegic.value.DoubleValue
0.495

@<SCITEGIC>MOL_PROPERTY
Angle
SciTegic.value.DoubleValue
5.823

@<SCITEGIC>MOL_PROPERTY
Pdih
SciTegic.value.DoubleValue
10.470

@<SCITEGIC>MOL_PROPERTY
Idih
SciTegic.value.DoubleValue
0.000

@<SCITEGIC>MOL_PROPERTY
Tether
SciTegic.value.DoubleValue
0.000

@<TRIPOS>MOLECULE
guest-s17_vm2.mol2 : vm2 ligand conformer 45
          25          25           1
SMALL
USER_CHARGES
 
@<TRIPOS>ATOM
       1    C1      20.225434   19.143411   20.616239 C.3        1 MOL1        -0.1684
       2    H1      19.186135   18.799219   20.527370 H          1 MOL1         0.0833
       3    H2      20.568141   19.316476   19.586892 H          1 MOL1         0.0833
       4    C2      21.106946   18.023623   21.215555 C.3        1 MOL1        -0.1684
       5    H3      21.026303   17.152093   20.551512 H          1 MOL1         0.0833
       6    H4      22.164417   18.319131   21.186158 H          1 MOL1         0.0833
       7    C3      20.714895   17.573460   22.642083 C.3        1 MOL1        -0.1684
       8    H5      21.072623   16.542004   22.765277 H          1 MOL1         0.0833
       9    H6      19.624065   17.507868   22.728456 H          1 MOL1         0.0833
      10    C4      21.355141   18.419169   23.782473 C.3        1 MOL1        -0.1760
      11    H7      21.820699   17.719301   24.488757 H          1 MOL1         0.0833
      12    H8      22.185198   19.023622   23.395582 H          1 MOL1         0.0833
      13    C5      20.411733   19.322720   24.614041 C.3        1 MOL1         0.1219
      14    H9      20.956468   19.581888   25.533333 H          1 MOL1         0.0790
      15    C6      20.022323   20.665438   23.954360 C.3        1 MOL1        -0.1760
      16    H10     19.355443   21.188159   24.652943 H          1 MOL1         0.0833
      17    H11     20.912926   21.302160   23.876086 H          1 MOL1         0.0833
      18    C7      19.312470   20.586917   22.578985 C.3        1 MOL1        -0.1684
      19    H12     18.730380   21.511186   22.460667 H          1 MOL1         0.0833
      20    H13     18.570955   19.778215   22.565531 H          1 MOL1         0.0833
      21    C8      20.278603   20.492229   21.369422 C.3        1 MOL1        -0.1684
      22    H14     21.311701   20.724537   21.660243 H          1 MOL1         0.0833
      23    H15     19.993302   21.277978   20.656408 H          1 MOL1         0.0833
      24    O1      19.236454   18.616032   24.986841 O.3        1 MOL1        -0.5508
      25    H16     18.764834   18.435708   24.150313 H          1 MOL1         0.3780
@<TRIPOS>BOND
    1     1     2    1
    2     1     3    1
    3     1     4    1
    4     4     5    1
    5     4     6    1
    6     4     7    1
    7     7     8    1
    8     7     9    1
    9     7    10    1
   10    10    11    1
   11    10    12    1
   12    10    13    1
   13    13    14    1
   14    13    15    1
   15    15    16    1
   16    15    17    1
   17    15    18    1
   18    18    19    1
   19    18    20    1
   20     1    21    1
   21    18    21    1
   22    21    22    1
   23    21    23    1
   24    13    24    1
   25    24    25    1
@<TRIPOS>SUBSTRUCTURE
       1 MOL1            1 RESIDUE      1      MOL     
@<SCITEGIC>MOL_PROPERTY
VM2 Rank
SciTegic.value.IntegerValue
45

@<SCITEGIC>MOL_PROPERTY
Conf_Id
SciTegic.value.IntegerValue
1327

@<SCITEGIC>MOL_PROPERTY
Probability
SciTegic.value.DoubleValue
0.55

@<SCITEGIC>MOL_PROPERTY
Sum Probability
SciTegic.value.DoubleValue
91.19

@<SCITEGIC>MOL_PROPERTY
Delta G
SciTegic.value.DoubleValue
1.263

@<SCITEGIC>MOL_PROPERTY
G
SciTegic.value.DoubleValue
63.338

@<SCITEGIC>MOL_PROPERTY
E
SciTegic.value.DoubleValue
31.413

@<SCITEGIC>MOL_PROPERTY
-TS
SciTegic.value.DoubleValue
31.925

@<SCITEGIC>MOL_PROPERTY
U+W
SciTegic.value.DoubleValue
10.845

@<SCITEGIC>MOL_PROPERTY
U
SciTegic.value.DoubleValue
12.343

@<SCITEGIC>MOL_PROPERTY
W
SciTegic.value.DoubleValue
-1.497

@<SCITEGIC>MOL_PROPERTY
W(PB)
SciTegic.value.DoubleValue
-3.626

@<SCITEGIC>MOL_PROPERTY
W(SA)
SciTegic.value.DoubleValue
2.129

@<SCITEGIC>MOL_PROPERTY
Valence
SciTegic.value.DoubleValue
19.543

@<SCITEGIC>MOL_PROPERTY
Coulomb
SciTegic.value.DoubleValue
-9.330

@<SCITEGIC>MOL_PROPERTY
VdW
SciTegic.value.DoubleValue
2.130

@<SCITEGIC>MOL_PROPERTY
VdW6
SciTegic.value.DoubleValue
-12.583

@<SCITEGIC>MOL_PROPERTY
VdW12
SciTegic.value.DoubleValue
14.713

@<SCITEGIC>MOL_PROPERTY
Bond
SciTegic.value.DoubleValue
0.361

@<SCITEGIC>MOL_PROPERTY
Angle
SciTegic.value.DoubleValue
4.755

@<SCITEGIC>MOL_PROPERTY
Pdih
SciTegic.value.DoubleValue
14.426

@<SCITEGIC>MOL_PROPERTY
Idih
SciTegic.value.DoubleValue
0.000

@<SCITEGIC>MOL_PROPERTY
Tether
SciTegic.value.DoubleValue
0.000

@<TRIPOS>MOLECULE
guest-s17_vm2.mol2 : vm2 ligand conformer 46
          25          25           1
SMALL
USER_CHARGES
 
@<TRIPOS>ATOM
       1    C1      20.518515   19.200499   20.742195 C.3        1 MOL1        -0.1684
       2    H1      19.576218   18.660428   20.579035 H          1 MOL1         0.0833
       3    H2      20.929422   19.374004   19.738063 H          1 MOL1         0.0833
       4    C2      21.539833   18.309836   21.494772 C.3        1 MOL1        -0.1684
       5    H3      22.072035   17.701540   20.750523 H          1 MOL1         0.0833
       6    H4      22.317576   18.935655   21.950904 H          1 MOL1         0.0833
       7    C3      20.943229   17.328401   22.538779 C.3        1 MOL1        -0.1684
       8    H5      21.773197   16.871917   23.095209 H          1 MOL1         0.0833
       9    H6      20.448666   16.503205   22.008393 H          1 MOL1         0.0833
      10    C4      19.934849   17.929312   23.548153 C.3        1 MOL1        -0.1760
      11    H7      18.968910   18.065694   23.050495 H          1 MOL1         0.0833
      12    H8      19.739624   17.181458   24.328272 H          1 MOL1         0.0833
      13    C5      20.410170   19.255719   24.192033 C.3        1 MOL1         0.1219
      14    H9      21.418752   19.499336   23.836539 H          1 MOL1         0.0790
      15    C6      19.492629   20.458861   23.879615 C.3        1 MOL1        -0.1760
      16    H10     18.572121   20.368670   24.471508 H          1 MOL1         0.0833
      17    H11     19.995652   21.365705   24.239635 H          1 MOL1         0.0833
      18    C7      19.099058   20.667154   22.391292 C.3        1 MOL1        -0.1684
      19    H12     18.636335   21.660791   22.316610 H          1 MOL1         0.0833
      20    H13     18.306169   19.966457   22.099849 H          1 MOL1         0.0833
      21    C8      20.262374   20.600566   21.369214 C.3        1 MOL1        -0.1684
      22    H14     21.183351   21.019014   21.796915 H          1 MOL1         0.0833
      23    H15     19.996114   21.273547   20.542481 H          1 MOL1         0.0833
      24    O1      20.463343   19.092653   25.603946 O.3        1 MOL1        -0.5508
      25    H16     21.092076   18.360774   25.776085 H          1 MOL1         0.3780
@<TRIPOS>BOND
    1     1     2    1
    2     1     3    1
    3     1     4    1
    4     4     5    1
    5     4     6    1
    6     4     7    1
    7     7     8    1
    8     7     9    1
    9     7    10    1
   10    10    11    1
   11    10    12    1
   12    10    13    1
   13    13    14    1
   14    13    15    1
   15    15    16    1
   16    15    17    1
   17    15    18    1
   18    18    19    1
   19    18    20    1
   20     1    21    1
   21    18    21    1
   22    21    22    1
   23    21    23    1
   24    13    24    1
   25    24    25    1
@<TRIPOS>SUBSTRUCTURE
       1 MOL1            1 RESIDUE      1      MOL     
@<SCITEGIC>MOL_PROPERTY
VM2 Rank
SciTegic.value.IntegerValue
46

@<SCITEGIC>MOL_PROPERTY
Conf_Id
SciTegic.value.IntegerValue
941

@<SCITEGIC>MOL_PROPERTY
Probability
SciTegic.value.DoubleValue
0.54

@<SCITEGIC>MOL_PROPERTY
Sum Probability
SciTegic.value.DoubleValue
91.72

@<SCITEGIC>MOL_PROPERTY
Delta G
SciTegic.value.DoubleValue
1.284

@<SCITEGIC>MOL_PROPERTY
G
SciTegic.value.DoubleValue
63.359

@<SCITEGIC>MOL_PROPERTY
E
SciTegic.value.DoubleValue
30.887

@<SCITEGIC>MOL_PROPERTY
-TS
SciTegic.value.DoubleValue
32.472

@<SCITEGIC>MOL_PROPERTY
U+W
SciTegic.value.DoubleValue
10.320

@<SCITEGIC>MOL_PROPERTY
U
SciTegic.value.DoubleValue
12.311

@<SCITEGIC>MOL_PROPERTY
W
SciTegic.value.DoubleValue
-1.992

@<SCITEGIC>MOL_PROPERTY
W(PB)
SciTegic.value.DoubleValue
-4.137

@<SCITEGIC>MOL_PROPERTY
W(SA)
SciTegic.value.DoubleValue
2.145

@<SCITEGIC>MOL_PROPERTY
Valence
SciTegic.value.DoubleValue
17.914

@<SCITEGIC>MOL_PROPERTY
Coulomb
SciTegic.value.DoubleValue
-8.725

@<SCITEGIC>MOL_PROPERTY
VdW
SciTegic.value.DoubleValue
3.122

@<SCITEGIC>MOL_PROPERTY
VdW6
SciTegic.value.DoubleValue
-12.447

@<SCITEGIC>MOL_PROPERTY
VdW12
SciTegic.value.DoubleValue
15.570

@<SCITEGIC>MOL_PROPERTY
Bond
SciTegic.value.DoubleValue
0.452

@<SCITEGIC>MOL_PROPERTY
Angle
SciTegic.value.DoubleValue
4.377

@<SCITEGIC>MOL_PROPERTY
Pdih
SciTegic.value.DoubleValue
13.085

@<SCITEGIC>MOL_PROPERTY
Idih
SciTegic.value.DoubleValue
0.000

@<SCITEGIC>MOL_PROPERTY
Tether
SciTegic.value.DoubleValue
0.000

@<TRIPOS>MOLECULE
guest-s17_vm2.mol2 : vm2 ligand conformer 47
          25          25           1
SMALL
USER_CHARGES
 
@<TRIPOS>ATOM
       1    C1      20.462324   19.350811   20.742064 C.3        1 MOL1        -0.1684
       2    H1      19.422801   19.038935   20.573700 H          1 MOL1         0.0833
       3    H2      20.878842   19.520344   19.739565 H          1 MOL1         0.0833
       4    C2      21.295338   18.205665   21.385235 C.3        1 MOL1        -0.1684
       5    H3      21.605653   17.541865   20.566480 H          1 MOL1         0.0833
       6    H4      22.230036   18.588190   21.816788 H          1 MOL1         0.0833
       7    C3      20.533992   17.325675   22.409127 C.3        1 MOL1        -0.1684
       8    H5      20.935466   16.304959   22.346198 H          1 MOL1         0.0833
       9    H6      19.482055   17.231677   22.110496 H          1 MOL1         0.0833
      10    C4      20.643087   17.767092   23.894602 C.3        1 MOL1        -0.1760
      11    H7      19.938767   17.167409   24.486314 H          1 MOL1         0.0833
      12    H8      21.644045   17.509578   24.264442 H          1 MOL1         0.0833
      13    C5      20.401539   19.263755   24.192419 C.3        1 MOL1         0.1219
      14    H9      21.275907   19.823525   23.838723 H          1 MOL1         0.0790
      15    C6      19.117848   19.828068   23.533969 C.3        1 MOL1        -0.1760
      16    H10     18.554601   19.029979   23.038884 H          1 MOL1         0.0833
      17    H11     18.435614   20.208765   24.305727 H          1 MOL1         0.0833
      18    C7      19.385165   20.964143   22.516794 C.3        1 MOL1        -0.1684
      19    H12     19.622268   21.884865   23.067148 H          1 MOL1         0.0833
      20    H13     18.450466   21.169970   21.977514 H          1 MOL1         0.0833
      21    C8      20.515324   20.711054   21.483457 C.3        1 MOL1        -0.1684
      22    H14     21.501323   20.847115   21.945932 H          1 MOL1         0.0833
      23    H15     20.447101   21.509519   20.731815 H          1 MOL1         0.0833
      24    O1      20.309383   19.426738   25.602333 O.3        1 MOL1        -0.5508
      25    H16     20.211225   20.388152   25.765522 H          1 MOL1         0.3780
@<TRIPOS>BOND
    1     1     2    1
    2     1     3    1
    3     1     4    1
    4     4     5    1
    5     4     6    1
    6     4     7    1
    7     7     8    1
    8     7     9    1
    9     7    10    1
   10    10    11    1
   11    10    12    1
   12    10    13    1
   13    13    14    1
   14    13    15    1
   15    15    16    1
   16    15    17    1
   17    15    18    1
   18    18    19    1
   19    18    20    1
   20     1    21    1
   21    18    21    1
   22    21    22    1
   23    21    23    1
   24    13    24    1
   25    24    25    1
@<TRIPOS>SUBSTRUCTURE
       1 MOL1            1 RESIDUE      1      MOL     
@<SCITEGIC>MOL_PROPERTY
VM2 Rank
SciTegic.value.IntegerValue
47

@<SCITEGIC>MOL_PROPERTY
Conf_Id
SciTegic.value.IntegerValue
670

@<SCITEGIC>MOL_PROPERTY
Probability
SciTegic.value.DoubleValue
0.52

@<SCITEGIC>MOL_PROPERTY
Sum Probability
SciTegic.value.DoubleValue
92.24

@<SCITEGIC>MOL_PROPERTY
Delta G
SciTegic.value.DoubleValue
1.297

@<SCITEGIC>MOL_PROPERTY
G
SciTegic.value.DoubleValue
63.373

@<SCITEGIC>MOL_PROPERTY
E
SciTegic.value.DoubleValue
30.900

@<SCITEGIC>MOL_PROPERTY
-TS
SciTegic.value.DoubleValue
32.472

@<SCITEGIC>MOL_PROPERTY
U+W
SciTegic.value.DoubleValue
10.333

@<SCITEGIC>MOL_PROPERTY
U
SciTegic.value.DoubleValue
12.311

@<SCITEGIC>MOL_PROPERTY
W
SciTegic.value.DoubleValue
-1.978

@<SCITEGIC>MOL_PROPERTY
W(PB)
SciTegic.value.DoubleValue
-4.130

@<SCITEGIC>MOL_PROPERTY
W(SA)
SciTegic.value.DoubleValue
2.152

@<SCITEGIC>MOL_PROPERTY
Valence
SciTegic.value.DoubleValue
17.914

@<SCITEGIC>MOL_PROPERTY
Coulomb
SciTegic.value.DoubleValue
-8.725

@<SCITEGIC>MOL_PROPERTY
VdW
SciTegic.value.DoubleValue
3.122

@<SCITEGIC>MOL_PROPERTY
VdW6
SciTegic.value.DoubleValue
-12.447

@<SCITEGIC>MOL_PROPERTY
VdW12
SciTegic.value.DoubleValue
15.570

@<SCITEGIC>MOL_PROPERTY
Bond
SciTegic.value.DoubleValue
0.452

@<SCITEGIC>MOL_PROPERTY
Angle
SciTegic.value.DoubleValue
4.377

@<SCITEGIC>MOL_PROPERTY
Pdih
SciTegic.value.DoubleValue
13.085

@<SCITEGIC>MOL_PROPERTY
Idih
SciTegic.value.DoubleValue
0.000

@<SCITEGIC>MOL_PROPERTY
Tether
SciTegic.value.DoubleValue
0.000

@<TRIPOS>MOLECULE
guest-s17_vm2.mol2 : vm2 ligand conformer 48
          25          25           1
SMALL
USER_CHARGES
 
@<TRIPOS>ATOM
       1    C1      20.462350   19.349711   20.737574 C.3        1 MOL1        -0.1684
       2    H1      19.422476   19.039588   20.568065 H          1 MOL1         0.0833
       3    H2      20.880316   19.520091   19.735824 H          1 MOL1         0.0833
       4    C2      21.292682   18.203329   21.380692 C.3        1 MOL1        -0.1684
       5    H3      21.597415   17.535838   20.562834 H          1 MOL1         0.0833
       6    H4      22.230244   18.583326   21.808234 H          1 MOL1         0.0833
       7    C3      20.530198   17.330728   22.409292 C.3        1 MOL1        -0.1684
       8    H5      20.923978   16.307081   22.344857 H          1 MOL1         0.0833
       9    H6      19.476027   17.243667   22.116550 H          1 MOL1         0.0833
      10    C4      20.651857   17.772294   23.893397 C.3        1 MOL1        -0.1760
      11    H7      19.955215   17.166500   24.488360 H          1 MOL1         0.0833
      12    H8      21.657948   17.516346   24.250165 H          1 MOL1         0.0833
      13    C5      20.402945   19.267471   24.197490 C.3        1 MOL1         0.1219
      14    H9      21.273774   19.837161   23.850802 H          1 MOL1         0.0790
      15    C6      19.119423   19.831442   23.538289 C.3        1 MOL1        -0.1760
      16    H10     18.547589   19.032188   23.055417 H          1 MOL1         0.0833
      17    H11     18.448179   20.224330   24.313744 H          1 MOL1         0.0833
      18    C7      19.384606   20.960969   22.512655 C.3        1 MOL1        -0.1684
      19    H12     19.619591   21.884333   23.059601 H          1 MOL1         0.0833
      20    H13     18.449558   21.162468   21.972482 H          1 MOL1         0.0833
      21    C8      20.516675   20.707788   21.481751 C.3        1 MOL1        -0.1684
      22    H14     21.501714   20.841029   21.947020 H          1 MOL1         0.0833
      23    H15     20.451670   21.507874   20.731568 H          1 MOL1         0.0833
      24    O1      20.303263   19.419268   25.608859 O.3        1 MOL1        -0.5508
      25    H16     21.146491   19.094763   25.988288 H          1 MOL1         0.3780
@<TRIPOS>BOND
    1     1     2    1
    2     1     3    1
    3     1     4    1
    4     4     5    1
    5     4     6    1
    6     4     7    1
    7     7     8    1
    8     7     9    1
    9     7    10    1
   10    10    11    1
   11    10    12    1
   12    10    13    1
   13    13    14    1
   14    13    15    1
   15    15    16    1
   16    15    17    1
   17    15    18    1
   18    18    19    1
   19    18    20    1
   20     1    21    1
   21    18    21    1
   22    21    22    1
   23    21    23    1
   24    13    24    1
   25    24    25    1
@<TRIPOS>SUBSTRUCTURE
       1 MOL1            1 RESIDUE      1      MOL     
@<SCITEGIC>MOL_PROPERTY
VM2 Rank
SciTegic.value.IntegerValue
48

@<SCITEGIC>MOL_PROPERTY
Conf_Id
SciTegic.value.IntegerValue
105

@<SCITEGIC>MOL_PROPERTY
Probability
SciTegic.value.DoubleValue
0.47

@<SCITEGIC>MOL_PROPERTY
Sum Probability
SciTegic.value.DoubleValue
92.71

@<SCITEGIC>MOL_PROPERTY
Delta G
SciTegic.value.DoubleValue
1.367

@<SCITEGIC>MOL_PROPERTY
G
SciTegic.value.DoubleValue
63.442

@<SCITEGIC>MOL_PROPERTY
E
SciTegic.value.DoubleValue
31.043

@<SCITEGIC>MOL_PROPERTY
-TS
SciTegic.value.DoubleValue
32.399

@<SCITEGIC>MOL_PROPERTY
U+W
SciTegic.value.DoubleValue
10.476

@<SCITEGIC>MOL_PROPERTY
U
SciTegic.value.DoubleValue
12.694

@<SCITEGIC>MOL_PROPERTY
W
SciTegic.value.DoubleValue
-2.219

@<SCITEGIC>MOL_PROPERTY
W(PB)
SciTegic.value.DoubleValue
-4.362

@<SCITEGIC>MOL_PROPERTY
W(SA)
SciTegic.value.DoubleValue
2.143

@<SCITEGIC>MOL_PROPERTY
Valence
SciTegic.value.DoubleValue
17.937

@<SCITEGIC>MOL_PROPERTY
Coulomb
SciTegic.value.DoubleValue
-8.339

@<SCITEGIC>MOL_PROPERTY
VdW
SciTegic.value.DoubleValue
3.096

@<SCITEGIC>MOL_PROPERTY
VdW6
SciTegic.value.DoubleValue
-12.392

@<SCITEGIC>MOL_PROPERTY
VdW12
SciTegic.value.DoubleValue
15.489

@<SCITEGIC>MOL_PROPERTY
Bond
SciTegic.value.DoubleValue
0.441

@<SCITEGIC>MOL_PROPERTY
Angle
SciTegic.value.DoubleValue
4.414

@<SCITEGIC>MOL_PROPERTY
Pdih
SciTegic.value.DoubleValue
13.082

@<SCITEGIC>MOL_PROPERTY
Idih
SciTegic.value.DoubleValue
0.000

@<SCITEGIC>MOL_PROPERTY
Tether
SciTegic.value.DoubleValue
0.000

@<TRIPOS>MOLECULE
guest-s17_vm2.mol2 : vm2 ligand conformer 49
          25          25           1
SMALL
USER_CHARGES
 
@<TRIPOS>ATOM
       1    C1      20.518319   19.201568   20.737764 C.3        1 MOL1        -0.1684
       2    H1      19.577081   18.660064   20.573165 H          1 MOL1         0.0833
       3    H2      20.931080   19.375701   19.734504 H          1 MOL1         0.0833
       4    C2      21.538771   18.313254   21.493210 C.3        1 MOL1        -0.1684
       5    H3      22.074551   17.706310   20.750448 H          1 MOL1         0.0833
       6    H4      22.313692   18.940265   21.952432 H          1 MOL1         0.0833
       7    C3      20.940622   17.330182   22.534472 C.3        1 MOL1        -0.1684
       8    H5      21.770893   16.870166   23.087650 H          1 MOL1         0.0833
       9    H6      20.442784   16.507828   22.002876 H          1 MOL1         0.0833
      10    C4      19.938212   17.928061   23.552209 C.3        1 MOL1        -0.1760
      11    H7      18.965603   18.059213   23.066618 H          1 MOL1         0.0833
      12    H8      19.759233   17.179688   24.335894 H          1 MOL1         0.0833
      13    C5      20.413458   19.254039   24.197157 C.3        1 MOL1         0.1219
      14    H9      21.426856   19.488433   23.849063 H          1 MOL1         0.0790
      15    C6      19.502090   20.461417   23.878372 C.3        1 MOL1        -0.1760
      16    H10     18.582250   20.380837   24.473081 H          1 MOL1         0.0833
      17    H11     20.009607   21.370720   24.225654 H          1 MOL1         0.0833
      18    C7      19.100230   20.660996   22.391421 C.3        1 MOL1        -0.1684
      19    H12     18.630107   21.651074   22.315283 H          1 MOL1         0.0833
      20    H13     18.310917   19.954011   22.105568 H          1 MOL1         0.0833
      21    C8      20.259310   20.600436   21.364924 C.3        1 MOL1        -0.1684
      22    H14     21.180317   21.022522   21.788953 H          1 MOL1         0.0833
      23    H15     19.986831   21.272106   20.539145 H          1 MOL1         0.0833
      24    O1      20.452988   19.093047   25.610472 O.3        1 MOL1        -0.5508
      25    H16     20.798398   19.931938   25.980946 H          1 MOL1         0.3780
@<TRIPOS>BOND
    1     1     2    1
    2     1     3    1
    3     1     4    1
    4     4     5    1
    5     4     6    1
    6     4     7    1
    7     7     8    1
    8     7     9    1
    9     7    10    1
   10    10    11    1
   11    10    12    1
   12    10    13    1
   13    13    14    1
   14    13    15    1
   15    15    16    1
   16    15    17    1
   17    15    18    1
   18    18    19    1
   19    18    20    1
   20     1    21    1
   21    18    21    1
   22    21    22    1
   23    21    23    1
   24    13    24    1
   25    24    25    1
@<TRIPOS>SUBSTRUCTURE
       1 MOL1            1 RESIDUE      1      MOL     
@<SCITEGIC>MOL_PROPERTY
VM2 Rank
SciTegic.value.IntegerValue
49

@<SCITEGIC>MOL_PROPERTY
Conf_Id
SciTegic.value.IntegerValue
333

@<SCITEGIC>MOL_PROPERTY
Probability
SciTegic.value.DoubleValue
0.46

@<SCITEGIC>MOL_PROPERTY
Sum Probability
SciTegic.value.DoubleValue
93.17

@<SCITEGIC>MOL_PROPERTY
Delta G
SciTegic.value.DoubleValue
1.373

@<SCITEGIC>MOL_PROPERTY
G
SciTegic.value.DoubleValue
63.448

@<SCITEGIC>MOL_PROPERTY
E
SciTegic.value.DoubleValue
31.049

@<SCITEGIC>MOL_PROPERTY
-TS
SciTegic.value.DoubleValue
32.399

@<SCITEGIC>MOL_PROPERTY
U+W
SciTegic.value.DoubleValue
10.482

@<SCITEGIC>MOL_PROPERTY
U
SciTegic.value.DoubleValue
12.694

@<SCITEGIC>MOL_PROPERTY
W
SciTegic.value.DoubleValue
-2.212

@<SCITEGIC>MOL_PROPERTY
W(PB)
SciTegic.value.DoubleValue
-4.351

@<SCITEGIC>MOL_PROPERTY
W(SA)
SciTegic.value.DoubleValue
2.138

@<SCITEGIC>MOL_PROPERTY
Valence
SciTegic.value.DoubleValue
17.937

@<SCITEGIC>MOL_PROPERTY
Coulomb
SciTegic.value.DoubleValue
-8.339

@<SCITEGIC>MOL_PROPERTY
VdW
SciTegic.value.DoubleValue
3.097

@<SCITEGIC>MOL_PROPERTY
VdW6
SciTegic.value.DoubleValue
-12.392

@<SCITEGIC>MOL_PROPERTY
VdW12
SciTegic.value.DoubleValue
15.489

@<SCITEGIC>MOL_PROPERTY
Bond
SciTegic.value.DoubleValue
0.441

@<SCITEGIC>MOL_PROPERTY
Angle
SciTegic.value.DoubleValue
4.414

@<SCITEGIC>MOL_PROPERTY
Pdih
SciTegic.value.DoubleValue
13.082

@<SCITEGIC>MOL_PROPERTY
Idih
SciTegic.value.DoubleValue
0.000

@<SCITEGIC>MOL_PROPERTY
Tether
SciTegic.value.DoubleValue
0.000

@<TRIPOS>MOLECULE
guest-s17_vm2.mol2 : vm2 ligand conformer 50
          25          25           1
SMALL
USER_CHARGES
 
@<TRIPOS>ATOM
       1    C1      20.510078   19.157451   20.719905 C.3        1 MOL1        -0.1684
       2    H1      21.488465   19.059691   20.230300 H          1 MOL1         0.0833
       3    H2      19.771252   19.155243   19.906823 H          1 MOL1         0.0833
       4    C2      20.241558   17.902655   21.586417 C.3        1 MOL1        -0.1684
       5    H3      19.225765   17.934550   21.990668 H          1 MOL1         0.0833
       6    H4      20.231967   17.038081   20.908565 H          1 MOL1         0.0833
       7    C3      21.278145   17.593618   22.697297 C.3        1 MOL1        -0.1684
       8    H5      22.239118   17.360088   22.219228 H          1 MOL1         0.0833
       9    H6      20.969541   16.665065   23.197171 H          1 MOL1         0.0833
      10    C4      21.533832   18.671304   23.790037 C.3        1 MOL1        -0.1760
      11    H7      22.160235   18.200695   24.558910 H          1 MOL1         0.0833
      12    H8      22.163270   19.471750   23.387780 H          1 MOL1         0.0833
      13    C5      20.307556   19.284133   24.517305 C.3        1 MOL1         0.1219
      14    H9      20.634139   19.497902   25.545242 H          1 MOL1         0.0790
      15    C6      19.813275   20.641187   23.953769 C.3        1 MOL1        -0.1760
      16    H10     18.995446   20.984861   24.600754 H          1 MOL1         0.0833
      17    H11     20.612771   21.382374   24.082035 H          1 MOL1         0.0833
      18    C7      19.313731   20.694571   22.483946 C.3        1 MOL1        -0.1684
      19    H12     18.863416   21.686045   22.339055 H          1 MOL1         0.0833
      20    H13     18.491320   19.988391   22.318359 H          1 MOL1         0.0833
      21    C8      20.432535   20.538334   21.420809 C.3        1 MOL1        -0.1684
      22    H14     20.267511   21.290026   20.636716 H          1 MOL1         0.0833
      23    H15     21.405750   20.804376   21.848906 H          1 MOL1         0.0833
      24    O1      19.233290   18.359746   24.590515 O.3        1 MOL1        -0.5508
      25    H16     19.111469   18.048236   23.673702 H          1 MOL1         0.3780
@<TRIPOS>BOND
    1     1     2    1
    2     1     3    1
    3     1     4    1
    4     4     5    1
    5     4     6    1
    6     4     7    1
    7     7     8    1
    8     7     9    1
    9     7    10    1
   10    10    11    1
   11    10    12    1
   12    10    13    1
   13    13    14    1
   14    13    15    1
   15    15    16    1
   16    15    17    1
   17    15    18    1
   18    18    19    1
   19    18    20    1
   20     1    21    1
   21    18    21    1
   22    21    22    1
   23    21    23    1
   24    13    24    1
   25    24    25    1
@<TRIPOS>SUBSTRUCTURE
       1 MOL1            1 RESIDUE      1      MOL     
@<SCITEGIC>MOL_PROPERTY
VM2 Rank
SciTegic.value.IntegerValue
50

@<SCITEGIC>MOL_PROPERTY
Conf_Id
SciTegic.value.IntegerValue
703

@<SCITEGIC>MOL_PROPERTY
Probability
SciTegic.value.DoubleValue
0.46

@<SCITEGIC>MOL_PROPERTY
Sum Probability
SciTegic.value.DoubleValue
93.63

@<SCITEGIC>MOL_PROPERTY
Delta G
SciTegic.value.DoubleValue
1.374

@<SCITEGIC>MOL_PROPERTY
G
SciTegic.value.DoubleValue
63.449

@<SCITEGIC>MOL_PROPERTY
E
SciTegic.value.DoubleValue
30.675

@<SCITEGIC>MOL_PROPERTY
-TS
SciTegic.value.DoubleValue
32.774

@<SCITEGIC>MOL_PROPERTY
U+W
SciTegic.value.DoubleValue
10.108

@<SCITEGIC>MOL_PROPERTY
U
SciTegic.value.DoubleValue
11.292

@<SCITEGIC>MOL_PROPERTY
W
SciTegic.value.DoubleValue
-1.184

@<SCITEGIC>MOL_PROPERTY
W(PB)
SciTegic.value.DoubleValue
-3.298

@<SCITEGIC>MOL_PROPERTY
W(SA)
SciTegic.value.DoubleValue
2.114

@<SCITEGIC>MOL_PROPERTY
Valence
SciTegic.value.DoubleValue
18.277

@<SCITEGIC>MOL_PROPERTY
Coulomb
SciTegic.value.DoubleValue
-9.503

@<SCITEGIC>MOL_PROPERTY
VdW
SciTegic.value.DoubleValue
2.518

@<SCITEGIC>MOL_PROPERTY
VdW6
SciTegic.value.DoubleValue
-13.881

@<SCITEGIC>MOL_PROPERTY
VdW12
SciTegic.value.DoubleValue
16.398

@<SCITEGIC>MOL_PROPERTY
Bond
SciTegic.value.DoubleValue
0.507

@<SCITEGIC>MOL_PROPERTY
Angle
SciTegic.value.DoubleValue
7.441

@<SCITEGIC>MOL_PROPERTY
Pdih
SciTegic.value.DoubleValue
10.329

@<SCITEGIC>MOL_PROPERTY
Idih
SciTegic.value.DoubleValue
0.000

@<SCITEGIC>MOL_PROPERTY
Tether
SciTegic.value.DoubleValue
0.000

@<TRIPOS>MOLECULE
guest-s17_vm2.mol2 : vm2 ligand conformer 51
          25          25           1
SMALL
USER_CHARGES
 
@<TRIPOS>ATOM
       1    C1      20.413773   19.358085   20.717412 C.3        1 MOL1        -0.1684
       2    H1      19.918224   18.799151   19.911810 H          1 MOL1         0.0833
       3    H2      21.001893   20.139039   20.216674 H          1 MOL1         0.0833
       4    C2      21.380105   18.383681   21.439117 C.3        1 MOL1        -0.1684
       5    H3      22.230112   18.931816   21.861287 H          1 MOL1         0.0833
       6    H4      21.828200   17.742362   20.667755 H          1 MOL1         0.0833
       7    C3      20.738414   17.469404   22.515557 C.3        1 MOL1        -0.1684
       8    H5      21.169287   16.466760   22.389654 H          1 MOL1         0.0833
       9    H6      19.663293   17.333453   22.347925 H          1 MOL1         0.0833
      10    C4      21.029155   17.900084   23.979373 C.3        1 MOL1        -0.1760
      11    H7      20.730357   17.075123   24.639453 H          1 MOL1         0.0833
      12    H8      22.114897   17.994911   24.110428 H          1 MOL1         0.0833
      13    C5      20.355750   19.188415   24.518083 C.3        1 MOL1         0.1219
      14    H9      20.729471   19.303815   25.545711 H          1 MOL1         0.0790
      15    C6      20.730681   20.495176   23.769730 C.3        1 MOL1        -0.1760
      16    H10     20.801048   21.288330   24.525360 H          1 MOL1         0.0833
      17    H11     21.747957   20.415209   23.372900 H          1 MOL1         0.0833
      18    C7      19.765919   21.012372   22.664019 C.3        1 MOL1        -0.1684
      19    H12     20.241814   21.872030   22.173032 H          1 MOL1         0.0833
      20    H13     18.869389   21.417457   23.153371 H          1 MOL1         0.0833
      21    C8      19.301432   20.018678   21.568165 C.3        1 MOL1        -0.1684
      22    H14     18.658257   20.581637   20.877900 H          1 MOL1         0.0833
      23    H15     18.639768   19.252901   21.982962 H          1 MOL1         0.0833
      24    O1      18.948771   19.017106   24.588543 O.3        1 MOL1        -0.5508
      25    H16     18.640081   19.120929   23.668567 H          1 MOL1         0.3780
@<TRIPOS>BOND
    1     1     2    1
    2     1     3    1
    3     1     4    1
    4     4     5    1
    5     4     6    1
    6     4     7    1
    7     7     8    1
    8     7     9    1
    9     7    10    1
   10    10    11    1
   11    10    12    1
   12    10    13    1
   13    13    14    1
   14    13    15    1
   15    15    16    1
   16    15    17    1
   17    15    18    1
   18    18    19    1
   19    18    20    1
   20     1    21    1
   21    18    21    1
   22    21    22    1
   23    21    23    1
   24    13    24    1
   25    24    25    1
@<TRIPOS>SUBSTRUCTURE
       1 MOL1            1 RESIDUE      1      MOL     
@<SCITEGIC>MOL_PROPERTY
VM2 Rank
SciTegic.value.IntegerValue
51

@<SCITEGIC>MOL_PROPERTY
Conf_Id
SciTegic.value.IntegerValue
1610

@<SCITEGIC>MOL_PROPERTY
Probability
SciTegic.value.DoubleValue
0.44

@<SCITEGIC>MOL_PROPERTY
Sum Probability
SciTegic.value.DoubleValue
94.08

@<SCITEGIC>MOL_PROPERTY
Delta G
SciTegic.value.DoubleValue
1.398

@<SCITEGIC>MOL_PROPERTY
G
SciTegic.value.DoubleValue
63.473

@<SCITEGIC>MOL_PROPERTY
E
SciTegic.value.DoubleValue
30.700

@<SCITEGIC>MOL_PROPERTY
-TS
SciTegic.value.DoubleValue
32.774

@<SCITEGIC>MOL_PROPERTY
U+W
SciTegic.value.DoubleValue
10.132

@<SCITEGIC>MOL_PROPERTY
U
SciTegic.value.DoubleValue
11.292

@<SCITEGIC>MOL_PROPERTY
W
SciTegic.value.DoubleValue
-1.159

@<SCITEGIC>MOL_PROPERTY
W(PB)
SciTegic.value.DoubleValue
-3.281

@<SCITEGIC>MOL_PROPERTY
W(SA)
SciTegic.value.DoubleValue
2.122

@<SCITEGIC>MOL_PROPERTY
Valence
SciTegic.value.DoubleValue
18.277

@<SCITEGIC>MOL_PROPERTY
Coulomb
SciTegic.value.DoubleValue
-9.503

@<SCITEGIC>MOL_PROPERTY
VdW
SciTegic.value.DoubleValue
2.517

@<SCITEGIC>MOL_PROPERTY
VdW6
SciTegic.value.DoubleValue
-13.881

@<SCITEGIC>MOL_PROPERTY
VdW12
SciTegic.value.DoubleValue
16.398

@<SCITEGIC>MOL_PROPERTY
Bond
SciTegic.value.DoubleValue
0.507

@<SCITEGIC>MOL_PROPERTY
Angle
SciTegic.value.DoubleValue
7.441

@<SCITEGIC>MOL_PROPERTY
Pdih
SciTegic.value.DoubleValue
10.329

@<SCITEGIC>MOL_PROPERTY
Idih
SciTegic.value.DoubleValue
0.000

@<SCITEGIC>MOL_PROPERTY
Tether
SciTegic.value.DoubleValue
0.000

@<TRIPOS>MOLECULE
guest-s17_vm2.mol2 : vm2 ligand conformer 52
          25          25           1
SMALL
USER_CHARGES
 
@<TRIPOS>ATOM
       1    C1      20.461891   19.349719   20.738312 C.3        1 MOL1        -0.1684
       2    H1      19.421806   19.039914   20.569560 H          1 MOL1         0.0833
       3    H2      20.879058   19.520258   19.736257 H          1 MOL1         0.0833
       4    C2      21.292628   18.203153   21.380489 C.3        1 MOL1        -0.1684
       5    H3      21.597233   17.536105   20.562224 H          1 MOL1         0.0833
       6    H4      22.230237   18.583136   21.808021 H          1 MOL1         0.0833
       7    C3      20.531011   17.329970   22.409147 C.3        1 MOL1        -0.1684
       8    H5      20.926463   16.306940   22.345063 H          1 MOL1         0.0833
       9    H6      19.477069   17.241360   22.116016 H          1 MOL1         0.0833
      10    C4      20.651908   17.771879   23.893179 C.3        1 MOL1        -0.1760
      11    H7      19.960688   17.160307   24.487848 H          1 MOL1         0.0833
      12    H8      21.659613   17.522676   24.250772 H          1 MOL1         0.0833
      13    C5      20.400788   19.266695   24.197170 C.3        1 MOL1         0.1219
      14    H9      21.272812   19.835285   23.852193 H          1 MOL1         0.0790
      15    C6      19.117564   19.831956   23.537880 C.3        1 MOL1        -0.1760
      16    H10     18.546898   19.033816   23.051249 H          1 MOL1         0.0833
      17    H11     18.443713   20.227624   24.309504 H          1 MOL1         0.0833
      18    C7      19.385409   20.961698   22.513355 C.3        1 MOL1        -0.1684
      19    H12     19.621814   21.884357   23.060941 H          1 MOL1         0.0833
      20    H13     18.451146   21.165344   21.972575 H          1 MOL1         0.0833
      21    C8      20.517560   20.707470   21.482914 C.3        1 MOL1        -0.1684
      22    H14     20.454044   21.507931   20.733003 H          1 MOL1         0.0833
      23    H15     21.502504   20.839266   21.948868 H          1 MOL1         0.0833
      24    O1      20.305240   19.420459   25.607553 O.3        1 MOL1        -0.5508
      25    H16     19.522386   18.904728   25.890185 H          1 MOL1         0.3780
@<TRIPOS>BOND
    1     1     2    1
    2     1     3    1
    3     1     4    1
    4     4     5    1
    5     4     6    1
    6     4     7    1
    7     7     8    1
    8     7     9    1
    9     7    10    1
   10    10    11    1
   11    10    12    1
   12    10    13    1
   13    13    14    1
   14    13    15    1
   15    15    16    1
   16    15    17    1
   17    15    18    1
   18    18    19    1
   19    18    20    1
   20     1    21    1
   21    18    21    1
   22    21    22    1
   23    21    23    1
   24    13    24    1
   25    24    25    1
@<TRIPOS>SUBSTRUCTURE
       1 MOL1            1 RESIDUE      1      MOL     
@<SCITEGIC>MOL_PROPERTY
VM2 Rank
SciTegic.value.IntegerValue
52

@<SCITEGIC>MOL_PROPERTY
Conf_Id
SciTegic.value.IntegerValue
1546

@<SCITEGIC>MOL_PROPERTY
Probability
SciTegic.value.DoubleValue
0.38

@<SCITEGIC>MOL_PROPERTY
Sum Probability
SciTegic.value.DoubleValue
94.45

@<SCITEGIC>MOL_PROPERTY
Delta G
SciTegic.value.DoubleValue
1.493

@<SCITEGIC>MOL_PROPERTY
G
SciTegic.value.DoubleValue
63.569

@<SCITEGIC>MOL_PROPERTY
E
SciTegic.value.DoubleValue
31.181

@<SCITEGIC>MOL_PROPERTY
-TS
SciTegic.value.DoubleValue
32.388

@<SCITEGIC>MOL_PROPERTY
U+W
SciTegic.value.DoubleValue
10.613

@<SCITEGIC>MOL_PROPERTY
U
SciTegic.value.DoubleValue
12.707

@<SCITEGIC>MOL_PROPERTY
W
SciTegic.value.DoubleValue
-2.094

@<SCITEGIC>MOL_PROPERTY
W(PB)
SciTegic.value.DoubleValue
-4.240

@<SCITEGIC>MOL_PROPERTY
W(SA)
SciTegic.value.DoubleValue
2.146

@<SCITEGIC>MOL_PROPERTY
Valence
SciTegic.value.DoubleValue
18.320

@<SCITEGIC>MOL_PROPERTY
Coulomb
SciTegic.value.DoubleValue
-8.639

@<SCITEGIC>MOL_PROPERTY
VdW
SciTegic.value.DoubleValue
3.026

@<SCITEGIC>MOL_PROPERTY
VdW6
SciTegic.value.DoubleValue
-12.424

@<SCITEGIC>MOL_PROPERTY
VdW12
SciTegic.value.DoubleValue
15.450

@<SCITEGIC>MOL_PROPERTY
Bond
SciTegic.value.DoubleValue
0.436

@<SCITEGIC>MOL_PROPERTY
Angle
SciTegic.value.DoubleValue
4.453

@<SCITEGIC>MOL_PROPERTY
Pdih
SciTegic.value.DoubleValue
13.430

@<SCITEGIC>MOL_PROPERTY
Idih
SciTegic.value.DoubleValue
0.000

@<SCITEGIC>MOL_PROPERTY
Tether
SciTegic.value.DoubleValue
0.000

@<TRIPOS>MOLECULE
guest-s17_vm2.mol2 : vm2 ligand conformer 53
          25          25           1
SMALL
USER_CHARGES
 
@<TRIPOS>ATOM
       1    C1      20.518055   19.201246   20.738512 C.3        1 MOL1        -0.1684
       2    H1      19.576891   18.659415   20.574613 H          1 MOL1         0.0833
       3    H2      20.930440   19.374695   19.734978 H          1 MOL1         0.0833
       4    C2      21.539133   18.314076   21.494392 C.3        1 MOL1        -0.1684
       5    H3      22.076207   17.707937   20.751906 H          1 MOL1         0.0833
       6    H4      22.312956   18.941979   21.954317 H          1 MOL1         0.0833
       7    C3      20.941611   17.330234   22.535176 C.3        1 MOL1        -0.1684
       8    H5      21.772310   16.871693   23.088996 H          1 MOL1         0.0833
       9    H6      20.445843   16.506990   22.002968 H          1 MOL1         0.0833
      10    C4      19.937218   17.926370   23.551800 C.3        1 MOL1        -0.1760
      11    H7      18.966247   18.057614   23.062423 H          1 MOL1         0.0833
      12    H8      19.758392   17.174159   24.331691 H          1 MOL1         0.0833
      13    C5      20.411389   19.252997   24.196837 C.3        1 MOL1         0.1219
      14    H9      21.424815   19.488994   23.850426 H          1 MOL1         0.0790
      15    C6      19.501866   20.461777   23.878148 C.3        1 MOL1        -0.1760
      16    H10     18.581576   20.389164   24.472479 H          1 MOL1         0.0833
      17    H11     20.015435   21.367585   24.226291 H          1 MOL1         0.0833
      18    C7      19.100295   20.662155   22.391258 C.3        1 MOL1        -0.1684
      19    H12     18.631806   21.653039   22.315456 H          1 MOL1         0.0833
      20    H13     18.309997   19.956428   22.104994 H          1 MOL1         0.0833
      21    C8      20.259212   20.600527   21.364729 C.3        1 MOL1        -0.1684
      22    H14     21.180246   21.022633   21.788761 H          1 MOL1         0.0833
      23    H15     19.986996   21.271802   20.538544 H          1 MOL1         0.0833
      24    O1      20.455223   19.093617   25.609150 O.3        1 MOL1        -0.5508
      25    H16     19.541652   18.885003   25.893029 H          1 MOL1         0.3780
@<TRIPOS>BOND
    1     1     2    1
    2     1     3    1
    3     1     4    1
    4     4     5    1
    5     4     6    1
    6     4     7    1
    7     7     8    1
    8     7     9    1
    9     7    10    1
   10    10    11    1
   11    10    12    1
   12    10    13    1
   13    13    14    1
   14    13    15    1
   15    15    16    1
   16    15    17    1
   17    15    18    1
   18    18    19    1
   19    18    20    1
   20     1    21    1
   21    18    21    1
   22    21    22    1
   23    21    23    1
   24    13    24    1
   25    24    25    1
@<TRIPOS>SUBSTRUCTURE
       1 MOL1            1 RESIDUE      1      MOL     
@<SCITEGIC>MOL_PROPERTY
VM2 Rank
SciTegic.value.IntegerValue
53

@<SCITEGIC>MOL_PROPERTY
Conf_Id
SciTegic.value.IntegerValue
348

@<SCITEGIC>MOL_PROPERTY
Probability
SciTegic.value.DoubleValue
0.37

@<SCITEGIC>MOL_PROPERTY
Sum Probability
SciTegic.value.DoubleValue
94.83

@<SCITEGIC>MOL_PROPERTY
Delta G
SciTegic.value.DoubleValue
1.500

@<SCITEGIC>MOL_PROPERTY
G
SciTegic.value.DoubleValue
63.576

@<SCITEGIC>MOL_PROPERTY
E
SciTegic.value.DoubleValue
31.187

@<SCITEGIC>MOL_PROPERTY
-TS
SciTegic.value.DoubleValue
32.388

@<SCITEGIC>MOL_PROPERTY
U+W
SciTegic.value.DoubleValue
10.620

@<SCITEGIC>MOL_PROPERTY
U
SciTegic.value.DoubleValue
12.707

@<SCITEGIC>MOL_PROPERTY
W
SciTegic.value.DoubleValue
-2.087

@<SCITEGIC>MOL_PROPERTY
W(PB)
SciTegic.value.DoubleValue
-4.226

@<SCITEGIC>MOL_PROPERTY
W(SA)
SciTegic.value.DoubleValue
2.139

@<SCITEGIC>MOL_PROPERTY
Valence
SciTegic.value.DoubleValue
18.320

@<SCITEGIC>MOL_PROPERTY
Coulomb
SciTegic.value.DoubleValue
-8.639

@<SCITEGIC>MOL_PROPERTY
VdW
SciTegic.value.DoubleValue
3.026

@<SCITEGIC>MOL_PROPERTY
VdW6
SciTegic.value.DoubleValue
-12.424

@<SCITEGIC>MOL_PROPERTY
VdW12
SciTegic.value.DoubleValue
15.450

@<SCITEGIC>MOL_PROPERTY
Bond
SciTegic.value.DoubleValue
0.436

@<SCITEGIC>MOL_PROPERTY
Angle
SciTegic.value.DoubleValue
4.453

@<SCITEGIC>MOL_PROPERTY
Pdih
SciTegic.value.DoubleValue
13.431

@<SCITEGIC>MOL_PROPERTY
Idih
SciTegic.value.DoubleValue
0.000

@<SCITEGIC>MOL_PROPERTY
Tether
SciTegic.value.DoubleValue
0.000

@<TRIPOS>MOLECULE
guest-s17_vm2.mol2 : vm2 ligand conformer 54
          25          25           1
SMALL
USER_CHARGES
 
@<TRIPOS>ATOM
       1    C1      20.947102   19.394957   20.768825 C.3        1 MOL1        -0.1684
       2    H1      21.868873   19.856065   21.145589 H          1 MOL1         0.0833
       3    H2      21.044732   19.427753   19.675033 H          1 MOL1         0.0833
       4    C2      20.879613   17.898410   21.173117 C.3        1 MOL1        -0.1684
       5    H3      20.160669   17.386130   20.519305 H          1 MOL1         0.0833
       6    H4      21.855708   17.442113   20.959009 H          1 MOL1         0.0833
       7    C3      20.500507   17.594332   22.642301 C.3        1 MOL1        -0.1684
       8    H5      20.697756   16.530797   22.833916 H          1 MOL1         0.0833
       9    H6      19.417579   17.706860   22.767623 H          1 MOL1         0.0833
      10    C4      21.278656   18.441960   23.684050 C.3        1 MOL1        -0.1760
      11    H7      21.808930   17.764646   24.366795 H          1 MOL1         0.0833
      12    H8      22.073949   19.020587   23.201908 H          1 MOL1         0.0833
      13    C5      20.405169   19.396771   24.530365 C.3        1 MOL1         0.1219
      14    H9      21.081747   20.099746   25.037163 H          1 MOL1         0.0790
      15    C6      19.346067   20.226649   23.761315 C.3        1 MOL1        -0.1760
      16    H10     18.486848   19.604483   23.482714 H          1 MOL1         0.0833
      17    H11     18.945518   20.958827   24.474835 H          1 MOL1         0.0833
      18    C7      19.854715   21.006937   22.521600 C.3        1 MOL1        -0.1684
      19    H12     20.881177   21.364344   22.679464 H          1 MOL1         0.0833
      20    H13     19.240356   21.914476   22.443253 H          1 MOL1         0.0833
      21    C8      19.723719   20.258230   21.166019 C.3        1 MOL1        -0.1684
      22    H14     18.799212   19.666692   21.126562 H          1 MOL1         0.0833
      23    H15     19.610260   21.026172   20.388482 H          1 MOL1         0.0833
      24    O1      19.728453   18.624754   25.512407 O.3        1 MOL1        -0.5508
      25    H16     19.249189   17.927018   25.021206 H          1 MOL1         0.3780
@<TRIPOS>BOND
    1     1     2    1
    2     1     3    1
    3     1     4    1
    4     4     5    1
    5     4     6    1
    6     4     7    1
    7     7     8    1
    8     7     9    1
    9     7    10    1
   10    10    11    1
   11    10    12    1
   12    10    13    1
   13    13    14    1
   14    13    15    1
   15    15    16    1
   16    15    17    1
   17    15    18    1
   18    18    19    1
   19    18    20    1
   20     1    21    1
   21    18    21    1
   22    21    22    1
   23    21    23    1
   24    13    24    1
   25    24    25    1
@<TRIPOS>SUBSTRUCTURE
       1 MOL1            1 RESIDUE      1      MOL     
@<SCITEGIC>MOL_PROPERTY
VM2 Rank
SciTegic.value.IntegerValue
54

@<SCITEGIC>MOL_PROPERTY
Conf_Id
SciTegic.value.IntegerValue
699

@<SCITEGIC>MOL_PROPERTY
Probability
SciTegic.value.DoubleValue
0.29

@<SCITEGIC>MOL_PROPERTY
Sum Probability
SciTegic.value.DoubleValue
95.12

@<SCITEGIC>MOL_PROPERTY
Delta G
SciTegic.value.DoubleValue
1.650

@<SCITEGIC>MOL_PROPERTY
G
SciTegic.value.DoubleValue
63.726

@<SCITEGIC>MOL_PROPERTY
E
SciTegic.value.DoubleValue
31.413

@<SCITEGIC>MOL_PROPERTY
-TS
SciTegic.value.DoubleValue
32.313

@<SCITEGIC>MOL_PROPERTY
U+W
SciTegic.value.DoubleValue
10.845

@<SCITEGIC>MOL_PROPERTY
U
SciTegic.value.DoubleValue
12.433

@<SCITEGIC>MOL_PROPERTY
W
SciTegic.value.DoubleValue
-1.588

@<SCITEGIC>MOL_PROPERTY
W(PB)
SciTegic.value.DoubleValue
-3.713

@<SCITEGIC>MOL_PROPERTY
W(SA)
SciTegic.value.DoubleValue
2.126

@<SCITEGIC>MOL_PROPERTY
Valence
SciTegic.value.DoubleValue
19.007

@<SCITEGIC>MOL_PROPERTY
Coulomb
SciTegic.value.DoubleValue
-9.373

@<SCITEGIC>MOL_PROPERTY
VdW
SciTegic.value.DoubleValue
2.799

@<SCITEGIC>MOL_PROPERTY
VdW6
SciTegic.value.DoubleValue
-12.597

@<SCITEGIC>MOL_PROPERTY
VdW12
SciTegic.value.DoubleValue
15.396

@<SCITEGIC>MOL_PROPERTY
Bond
SciTegic.value.DoubleValue
0.425

@<SCITEGIC>MOL_PROPERTY
Angle
SciTegic.value.DoubleValue
4.785

@<SCITEGIC>MOL_PROPERTY
Pdih
SciTegic.value.DoubleValue
13.798

@<SCITEGIC>MOL_PROPERTY
Idih
SciTegic.value.DoubleValue
0.000

@<SCITEGIC>MOL_PROPERTY
Tether
SciTegic.value.DoubleValue
0.000

@<TRIPOS>MOLECULE
guest-s17_vm2.mol2 : vm2 ligand conformer 55
          25          25           1
SMALL
USER_CHARGES
 
@<TRIPOS>ATOM
       1    C1      19.891179   19.003313   20.794243 C.3        1 MOL1        -0.1684
       2    H1      19.760577   19.028421   19.703695 H          1 MOL1         0.0833
       3    H2      18.938953   18.618910   21.181107 H          1 MOL1         0.0833
       4    C2      21.043564   18.007541   21.089658 C.3        1 MOL1        -0.1684
       5    H3      20.704339   17.000887   20.809665 H          1 MOL1         0.0833
       6    H4      21.887968   18.233694   20.424368 H          1 MOL1         0.0833
       7    C3      21.569712   17.966447   22.544587 C.3        1 MOL1        -0.1684
       8    H5      22.238069   18.818094   22.717117 H          1 MOL1         0.0833
       9    H6      22.211031   17.080814   22.650192 H          1 MOL1         0.0833
      10    C4      20.454449   17.905242   23.620642 C.3        1 MOL1        -0.1760
      11    H7      19.474518   17.740054   23.159299 H          1 MOL1         0.0833
      12    H8      20.624478   17.019485   24.246519 H          1 MOL1         0.0833
      13    C5      20.399234   19.133960   24.557376 C.3        1 MOL1         0.1219
      14    H9      21.251441   19.063491   25.248465 H          1 MOL1         0.0790
      15    C6      20.475844   20.526419   23.879387 C.3        1 MOL1        -0.1760
      16    H10     20.253516   21.272668   24.653993 H          1 MOL1         0.0833
      17    H11     21.508754   20.741951   23.580798 H          1 MOL1         0.0833
      18    C7      19.520996   20.779264   22.682152 C.3        1 MOL1        -0.1684
      19    H12     19.286093   21.852552   22.686144 H          1 MOL1         0.0833
      20    H13     18.558219   20.272876   22.828589 H          1 MOL1         0.0833
      21    C8      20.113181   20.456163   21.282617 C.3        1 MOL1        -0.1684
      22    H14     21.175786   20.728352   21.228145 H          1 MOL1         0.0833
      23    H15     19.607385   21.114968   20.563367 H          1 MOL1         0.0833
      24    O1      19.195841   19.064652   25.309338 O.3        1 MOL1        -0.5508
      25    H16     18.471894   19.226217   24.671419 H          1 MOL1         0.3780
@<TRIPOS>BOND
    1     1     2    1
    2     1     3    1
    3     1     4    1
    4     4     5    1
    5     4     6    1
    6     4     7    1
    7     7     8    1
    8     7     9    1
    9     7    10    1
   10    10    11    1
   11    10    12    1
   12    10    13    1
   13    13    14    1
   14    13    15    1
   15    15    16    1
   16    15    17    1
   17    15    18    1
   18    18    19    1
   19    18    20    1
   20     1    21    1
   21    18    21    1
   22    21    22    1
   23    21    23    1
   24    13    24    1
   25    24    25    1
@<TRIPOS>SUBSTRUCTURE
       1 MOL1            1 RESIDUE      1      MOL     
@<SCITEGIC>MOL_PROPERTY
VM2 Rank
SciTegic.value.IntegerValue
55

@<SCITEGIC>MOL_PROPERTY
Conf_Id
SciTegic.value.IntegerValue
686

@<SCITEGIC>MOL_PROPERTY
Probability
SciTegic.value.DoubleValue
0.26

@<SCITEGIC>MOL_PROPERTY
Sum Probability
SciTegic.value.DoubleValue
95.37

@<SCITEGIC>MOL_PROPERTY
Delta G
SciTegic.value.DoubleValue
1.717

@<SCITEGIC>MOL_PROPERTY
G
SciTegic.value.DoubleValue
63.792

@<SCITEGIC>MOL_PROPERTY
E
SciTegic.value.DoubleValue
31.518

@<SCITEGIC>MOL_PROPERTY
-TS
SciTegic.value.DoubleValue
32.274

@<SCITEGIC>MOL_PROPERTY
U+W
SciTegic.value.DoubleValue
10.950

@<SCITEGIC>MOL_PROPERTY
U
SciTegic.value.DoubleValue
12.526

@<SCITEGIC>MOL_PROPERTY
W
SciTegic.value.DoubleValue
-1.576

@<SCITEGIC>MOL_PROPERTY
W(PB)
SciTegic.value.DoubleValue
-3.699

@<SCITEGIC>MOL_PROPERTY
W(SA)
SciTegic.value.DoubleValue
2.123

@<SCITEGIC>MOL_PROPERTY
Valence
SciTegic.value.DoubleValue
19.016

@<SCITEGIC>MOL_PROPERTY
Coulomb
SciTegic.value.DoubleValue
-9.226

@<SCITEGIC>MOL_PROPERTY
VdW
SciTegic.value.DoubleValue
2.737

@<SCITEGIC>MOL_PROPERTY
VdW6
SciTegic.value.DoubleValue
-12.612

@<SCITEGIC>MOL_PROPERTY
VdW12
SciTegic.value.DoubleValue
15.349

@<SCITEGIC>MOL_PROPERTY
Bond
SciTegic.value.DoubleValue
0.421

@<SCITEGIC>MOL_PROPERTY
Angle
SciTegic.value.DoubleValue
4.883

@<SCITEGIC>MOL_PROPERTY
Pdih
SciTegic.value.DoubleValue
13.711

@<SCITEGIC>MOL_PROPERTY
Idih
SciTegic.value.DoubleValue
0.000

@<SCITEGIC>MOL_PROPERTY
Tether
SciTegic.value.DoubleValue
0.000

@<TRIPOS>MOLECULE
guest-s17_vm2.mol2 : vm2 ligand conformer 56
          25          25           1
SMALL
USER_CHARGES
 
@<TRIPOS>ATOM
       1    C1      19.851456   19.052476   20.798156 C.3        1 MOL1        -0.1684
       2    H1      18.908760   18.653864   21.193879 H          1 MOL1         0.0833
       3    H2      19.768515   18.937707   19.708692 H          1 MOL1         0.0833
       4    C2      21.038319   18.182766   21.281409 C.3        1 MOL1        -0.1684
       5    H3      21.140044   17.355981   20.564992 H          1 MOL1         0.0833
       6    H4      21.982423   18.740216   21.217355 H          1 MOL1         0.0833
       7    C3      20.857824   17.541947   22.685174 C.3        1 MOL1        -0.1684
       8    H5      21.449472   16.616159   22.688735 H          1 MOL1         0.0833
       9    H6      19.819692   17.221249   22.840887 H          1 MOL1         0.0833
      10    C4      21.364375   18.400488   23.874859 C.3        1 MOL1        -0.1760
      11    H7      21.739825   17.718508   24.649633 H          1 MOL1         0.0833
      12    H8      22.245609   18.975985   23.567058 H          1 MOL1         0.0833
      13    C5      20.331954   19.335266   24.556603 C.3        1 MOL1         0.1219
      14    H9      20.890787   19.990049   25.240557 H          1 MOL1         0.0790
      15    C6      19.496185   20.240038   23.622180 C.3        1 MOL1        -0.1760
      16    H10     18.682313   19.662895   23.169513 H          1 MOL1         0.0833
      17    H11     18.995727   20.989961   24.248561 H          1 MOL1         0.0833
      18    C7      20.320814   20.979594   22.536592 C.3        1 MOL1        -0.1684
      19    H12     21.396734   20.849348   22.701524 H          1 MOL1         0.0833
      20    H13     20.150229   22.059986   22.638781 H          1 MOL1         0.0833
      21    C8      19.966296   20.572586   21.086076 C.3        1 MOL1        -0.1684
      22    H14     19.013099   21.044506   20.811243 H          1 MOL1         0.0833
      23    H15     20.718760   21.005892   20.413159 H          1 MOL1         0.0833
      24    O1      19.436776   18.537839   25.318951 O.3        1 MOL1        -0.5508
      25    H16     19.033621   17.909251   24.686902 H          1 MOL1         0.3780
@<TRIPOS>BOND
    1     1     2    1
    2     1     3    1
    3     1     4    1
    4     4     5    1
    5     4     6    1
    6     4     7    1
    7     7     8    1
    8     7     9    1
    9     7    10    1
   10    10    11    1
   11    10    12    1
   12    10    13    1
   13    13    14    1
   14    13    15    1
   15    15    16    1
   16    15    17    1
   17    15    18    1
   18    18    19    1
   19    18    20    1
   20     1    21    1
   21    18    21    1
   22    21    22    1
   23    21    23    1
   24    13    24    1
   25    24    25    1
@<TRIPOS>SUBSTRUCTURE
       1 MOL1            1 RESIDUE      1      MOL     
@<SCITEGIC>MOL_PROPERTY
VM2 Rank
SciTegic.value.IntegerValue
56

@<SCITEGIC>MOL_PROPERTY
Conf_Id
SciTegic.value.IntegerValue
615

@<SCITEGIC>MOL_PROPERTY
Probability
SciTegic.value.DoubleValue
0.26

@<SCITEGIC>MOL_PROPERTY
Sum Probability
SciTegic.value.DoubleValue
95.63

@<SCITEGIC>MOL_PROPERTY
Delta G
SciTegic.value.DoubleValue
1.725

@<SCITEGIC>MOL_PROPERTY
G
SciTegic.value.DoubleValue
63.800

@<SCITEGIC>MOL_PROPERTY
E
SciTegic.value.DoubleValue
31.526

@<SCITEGIC>MOL_PROPERTY
-TS
SciTegic.value.DoubleValue
32.274

@<SCITEGIC>MOL_PROPERTY
U+W
SciTegic.value.DoubleValue
10.958

@<SCITEGIC>MOL_PROPERTY
U
SciTegic.value.DoubleValue
12.527

@<SCITEGIC>MOL_PROPERTY
W
SciTegic.value.DoubleValue
-1.568

@<SCITEGIC>MOL_PROPERTY
W(PB)
SciTegic.value.DoubleValue
-3.703

@<SCITEGIC>MOL_PROPERTY
W(SA)
SciTegic.value.DoubleValue
2.135

@<SCITEGIC>MOL_PROPERTY
Valence
SciTegic.value.DoubleValue
19.016

@<SCITEGIC>MOL_PROPERTY
Coulomb
SciTegic.value.DoubleValue
-9.226

@<SCITEGIC>MOL_PROPERTY
VdW
SciTegic.value.DoubleValue
2.737

@<SCITEGIC>MOL_PROPERTY
VdW6
SciTegic.value.DoubleValue
-12.612

@<SCITEGIC>MOL_PROPERTY
VdW12
SciTegic.value.DoubleValue
15.349

@<SCITEGIC>MOL_PROPERTY
Bond
SciTegic.value.DoubleValue
0.421

@<SCITEGIC>MOL_PROPERTY
Angle
SciTegic.value.DoubleValue
4.883

@<SCITEGIC>MOL_PROPERTY
Pdih
SciTegic.value.DoubleValue
13.712

@<SCITEGIC>MOL_PROPERTY
Idih
SciTegic.value.DoubleValue
0.000

@<SCITEGIC>MOL_PROPERTY
Tether
SciTegic.value.DoubleValue
0.000

@<TRIPOS>MOLECULE
guest-s17_vm2.mol2 : vm2 ligand conformer 57
          25          25           1
SMALL
USER_CHARGES
 
@<TRIPOS>ATOM
       1    C1      20.924390   19.541802   20.780397 C.3        1 MOL1        -0.1684
       2    H1      21.034179   19.593379   19.688484 H          1 MOL1         0.0833
       3    H2      21.895921   19.865865   21.174534 H          1 MOL1         0.0833
       4    C2      20.663968   18.064185   21.165749 C.3        1 MOL1        -0.1684
       5    H3      19.592830   17.828618   21.107795 H          1 MOL1         0.0833
       6    H4      21.139468   17.445147   20.392532 H          1 MOL1         0.0833
       7    C3      21.264266   17.620524   22.528881 C.3        1 MOL1        -0.1684
       8    H5      22.239948   18.093098   22.704959 H          1 MOL1         0.0833
       9    H6      21.473244   16.544870   22.448275 H          1 MOL1         0.0833
      10    C4      20.332911   17.805838   23.754730 C.3        1 MOL1        -0.1760
      11    H7      19.290105   17.639363   23.458406 H          1 MOL1         0.0833
      12    H8      20.556179   17.001225   24.467740 H          1 MOL1         0.0833
      13    C5      20.482061   19.137554   24.533263 C.3        1 MOL1         0.1219
      14    H9      21.449247   19.116520   25.055643 H          1 MOL1         0.0790
      15    C6      20.437748   20.434739   23.692882 C.3        1 MOL1        -0.1760
      16    H10     20.322493   21.285030   24.378306 H          1 MOL1         0.0833
      17    H11     21.416841   20.590717   23.227256 H          1 MOL1         0.0833
      18    C7      19.305056   20.488990   22.633026 C.3        1 MOL1        -0.1684
      19    H12     18.689170   21.379315   22.819402 H          1 MOL1         0.0833
      20    H13     18.617254   19.642845   22.742872 H          1 MOL1         0.0833
      21    C8      19.811703   20.549846   21.172105 C.3        1 MOL1        -0.1684
      22    H14     18.951786   20.406863   20.503614 H          1 MOL1         0.0833
      23    H15     20.182266   21.563913   20.969219 H          1 MOL1         0.0833
      24    O1      19.441898   19.199522   25.498968 O.3        1 MOL1        -0.5508
      25    H16     18.617644   19.356486   24.995206 H          1 MOL1         0.3780
@<TRIPOS>BOND
    1     1     2    1
    2     1     3    1
    3     1     4    1
    4     4     5    1
    5     4     6    1
    6     4     7    1
    7     7     8    1
    8     7     9    1
    9     7    10    1
   10    10    11    1
   11    10    12    1
   12    10    13    1
   13    13    14    1
   14    13    15    1
   15    15    16    1
   16    15    17    1
   17    15    18    1
   18    18    19    1
   19    18    20    1
   20     1    21    1
   21    18    21    1
   22    21    22    1
   23    21    23    1
   24    13    24    1
   25    24    25    1
@<TRIPOS>SUBSTRUCTURE
       1 MOL1            1 RESIDUE      1      MOL     
@<SCITEGIC>MOL_PROPERTY
VM2 Rank
SciTegic.value.IntegerValue
57

@<SCITEGIC>MOL_PROPERTY
Conf_Id
SciTegic.value.IntegerValue
1483

@<SCITEGIC>MOL_PROPERTY
Probability
SciTegic.value.DoubleValue
0.26

@<SCITEGIC>MOL_PROPERTY
Sum Probability
SciTegic.value.DoubleValue
95.88

@<SCITEGIC>MOL_PROPERTY
Delta G
SciTegic.value.DoubleValue
1.726

@<SCITEGIC>MOL_PROPERTY
G
SciTegic.value.DoubleValue
63.802

@<SCITEGIC>MOL_PROPERTY
E
SciTegic.value.DoubleValue
31.489

@<SCITEGIC>MOL_PROPERTY
-TS
SciTegic.value.DoubleValue
32.313

@<SCITEGIC>MOL_PROPERTY
U+W
SciTegic.value.DoubleValue
10.922

@<SCITEGIC>MOL_PROPERTY
U
SciTegic.value.DoubleValue
12.433

@<SCITEGIC>MOL_PROPERTY
W
SciTegic.value.DoubleValue
-1.511

@<SCITEGIC>MOL_PROPERTY
W(PB)
SciTegic.value.DoubleValue
-3.669

@<SCITEGIC>MOL_PROPERTY
W(SA)
SciTegic.value.DoubleValue
2.157

@<SCITEGIC>MOL_PROPERTY
Valence
SciTegic.value.DoubleValue
19.007

@<SCITEGIC>MOL_PROPERTY
Coulomb
SciTegic.value.DoubleValue
-9.373

@<SCITEGIC>MOL_PROPERTY
VdW
SciTegic.value.DoubleValue
2.799

@<SCITEGIC>MOL_PROPERTY
VdW6
SciTegic.value.DoubleValue
-12.597

@<SCITEGIC>MOL_PROPERTY
VdW12
SciTegic.value.DoubleValue
15.396

@<SCITEGIC>MOL_PROPERTY
Bond
SciTegic.value.DoubleValue
0.425

@<SCITEGIC>MOL_PROPERTY
Angle
SciTegic.value.DoubleValue
4.785

@<SCITEGIC>MOL_PROPERTY
Pdih
SciTegic.value.DoubleValue
13.798

@<SCITEGIC>MOL_PROPERTY
Idih
SciTegic.value.DoubleValue
0.000

@<SCITEGIC>MOL_PROPERTY
Tether
SciTegic.value.DoubleValue
0.000

@<TRIPOS>MOLECULE
guest-s17_vm2.mol2 : vm2 ligand conformer 58
          25          25           1
SMALL
USER_CHARGES
 
@<TRIPOS>ATOM
       1    C1      19.660778   18.881491   21.120199 C.3        1 MOL1        -0.1684
       2    H1      18.877099   18.341520   21.660553 H          1 MOL1         0.0833
       3    H2      19.388524   18.742967   20.064611 H          1 MOL1         0.0833
       4    C2      21.039464   18.208798   21.338553 C.3        1 MOL1        -0.1684
       5    H3      21.138778   17.423725   20.576320 H          1 MOL1         0.0833
       6    H4      21.861515   18.905754   21.132447 H          1 MOL1         0.0833
       7    C3      21.226961   17.516502   22.713530 C.3        1 MOL1        -0.1684
       8    H5      22.124384   16.887813   22.634775 H          1 MOL1         0.0833
       9    H6      20.404398   16.810692   22.891004 H          1 MOL1         0.0833
      10    C4      21.426202   18.433916   23.955264 C.3        1 MOL1        -0.1760
      11    H7      21.755968   17.784342   24.776474 H          1 MOL1         0.0833
      12    H8      22.267209   19.117843   23.787805 H          1 MOL1         0.0833
      13    C5      20.195662   19.218478   24.486122 C.3        1 MOL1         0.1219
      14    H9      20.319731   19.296254   25.575951 H          1 MOL1         0.0790
      15    C6      20.055445   20.674266   23.977773 C.3        1 MOL1        -0.1760
      16    H10     19.024337   21.016009   24.139128 H          1 MOL1         0.0833
      17    H11     20.672170   21.301646   24.634423 H          1 MOL1         0.0833
      18    C7      20.480567   20.990444   22.521071 C.3        1 MOL1        -0.1684
      19    H12     21.533479   20.734584   22.359309 H          1 MOL1         0.0833
      20    H13     20.448044   22.083353   22.414604 H          1 MOL1         0.0833
      21    C8      19.588311   20.406842   21.396703 C.3        1 MOL1        -0.1684
      22    H14     18.542403   20.693854   21.571010 H          1 MOL1         0.0833
      23    H15     19.878350   20.916955   20.467760 H          1 MOL1         0.0833
      24    O1      18.990610   18.512263   24.250785 O.3        1 MOL1        -0.5508
      25    H16     18.930733   18.469707   23.278105 H          1 MOL1         0.3780
@<TRIPOS>BOND
    1     1     2    1
    2     1     3    1
    3     1     4    1
    4     4     5    1
    5     4     6    1
    6     4     7    1
    7     7     8    1
    8     7     9    1
    9     7    10    1
   10    10    11    1
   11    10    12    1
   12    10    13    1
   13    13    14    1
   14    13    15    1
   15    15    16    1
   16    15    17    1
   17    15    18    1
   18    18    19    1
   19    18    20    1
   20     1    21    1
   21    18    21    1
   22    21    22    1
   23    21    23    1
   24    13    24    1
   25    24    25    1
@<TRIPOS>SUBSTRUCTURE
       1 MOL1            1 RESIDUE      1      MOL     
@<SCITEGIC>MOL_PROPERTY
VM2 Rank
SciTegic.value.IntegerValue
58

@<SCITEGIC>MOL_PROPERTY
Conf_Id
SciTegic.value.IntegerValue
908

@<SCITEGIC>MOL_PROPERTY
Probability
SciTegic.value.DoubleValue
0.19

@<SCITEGIC>MOL_PROPERTY
Sum Probability
SciTegic.value.DoubleValue
96.08

@<SCITEGIC>MOL_PROPERTY
Delta G
SciTegic.value.DoubleValue
1.899

@<SCITEGIC>MOL_PROPERTY
G
SciTegic.value.DoubleValue
63.974

@<SCITEGIC>MOL_PROPERTY
E
SciTegic.value.DoubleValue
31.774

@<SCITEGIC>MOL_PROPERTY
-TS
SciTegic.value.DoubleValue
32.200

@<SCITEGIC>MOL_PROPERTY
U+W
SciTegic.value.DoubleValue
11.207

@<SCITEGIC>MOL_PROPERTY
U
SciTegic.value.DoubleValue
12.093

@<SCITEGIC>MOL_PROPERTY
W
SciTegic.value.DoubleValue
-0.886

@<SCITEGIC>MOL_PROPERTY
W(PB)
SciTegic.value.DoubleValue
-2.996

@<SCITEGIC>MOL_PROPERTY
W(SA)
SciTegic.value.DoubleValue
2.110

@<SCITEGIC>MOL_PROPERTY
Valence
SciTegic.value.DoubleValue
19.646

@<SCITEGIC>MOL_PROPERTY
Coulomb
SciTegic.value.DoubleValue
-9.930

@<SCITEGIC>MOL_PROPERTY
VdW
SciTegic.value.DoubleValue
2.377

@<SCITEGIC>MOL_PROPERTY
VdW6
SciTegic.value.DoubleValue
-13.909

@<SCITEGIC>MOL_PROPERTY
VdW12
SciTegic.value.DoubleValue
16.287

@<SCITEGIC>MOL_PROPERTY
Bond
SciTegic.value.DoubleValue
0.498

@<SCITEGIC>MOL_PROPERTY
Angle
SciTegic.value.DoubleValue
8.148

@<SCITEGIC>MOL_PROPERTY
Pdih
SciTegic.value.DoubleValue
11.000

@<SCITEGIC>MOL_PROPERTY
Idih
SciTegic.value.DoubleValue
0.000

@<SCITEGIC>MOL_PROPERTY
Tether
SciTegic.value.DoubleValue
0.000

@<TRIPOS>MOLECULE
guest-s17_vm2.mol2 : vm2 ligand conformer 59
          25          25           1
SMALL
USER_CHARGES
 
@<TRIPOS>ATOM
       1    C1      20.869088   19.438344   20.600451 C.3        1 MOL1        -0.1684
       2    H1      20.554347   18.920358   19.684217 H          1 MOL1         0.0833
       3    H2      21.668415   20.126211   20.292737 H          1 MOL1         0.0833
       4    C2      21.474570   18.394790   21.571259 C.3        1 MOL1        -0.1684
       5    H3      22.145089   18.895844   22.279005 H          1 MOL1         0.0833
       6    H4      22.130144   17.732233   20.989787 H          1 MOL1         0.0833
       7    C3      20.426967   17.526945   22.313670 C.3        1 MOL1        -0.1684
       8    H5      20.646591   16.467841   22.121962 H          1 MOL1         0.0833
       9    H6      19.423261   17.683370   21.901671 H          1 MOL1         0.0833
      10    C4      20.401167   17.741896   23.848169 C.3        1 MOL1        -0.1760
      11    H7      19.515311   17.235838   24.254278 H          1 MOL1         0.0833
      12    H8      21.267908   17.229189   24.285270 H          1 MOL1         0.0833
      13    C5      20.420163   19.207513   24.349946 C.3        1 MOL1         0.1219
      14    H9      21.413806   19.638705   24.169015 H          1 MOL1         0.0790
      15    C6      19.355413   20.134148   23.713584 C.3        1 MOL1        -0.1760
      16    H10     18.453578   19.561861   23.461130 H          1 MOL1         0.0833
      17    H11     19.035455   20.858977   24.474008 H          1 MOL1         0.0833
      18    C7      19.849683   20.957814   22.490872 C.3        1 MOL1        -0.1684
      19    H12     20.889665   21.284537   22.625457 H          1 MOL1         0.0833
      20    H13     19.255020   21.881422   22.467189 H          1 MOL1         0.0833
      21    C8      19.663669   20.268582   21.116403 C.3        1 MOL1        -0.1684
      22    H14     18.750280   19.660298   21.122742 H          1 MOL1         0.0833
      23    H15     19.472200   21.051506   20.369788 H          1 MOL1         0.0833
      24    O1      20.203279   19.172967   25.755644 O.3        1 MOL1        -0.5508
      25    H16     20.296179   20.093663   26.078358 H          1 MOL1         0.3780
@<TRIPOS>BOND
    1     1     2    1
    2     1     3    1
    3     1     4    1
    4     4     5    1
    5     4     6    1
    6     4     7    1
    7     7     8    1
    8     7     9    1
    9     7    10    1
   10    10    11    1
   11    10    12    1
   12    10    13    1
   13    13    14    1
   14    13    15    1
   15    15    16    1
   16    15    17    1
   17    15    18    1
   18    18    19    1
   19    18    20    1
   20     1    21    1
   21    18    21    1
   22    21    22    1
   23    21    23    1
   24    13    24    1
   25    24    25    1
@<TRIPOS>SUBSTRUCTURE
       1 MOL1            1 RESIDUE      1      MOL     
@<SCITEGIC>MOL_PROPERTY
VM2 Rank
SciTegic.value.IntegerValue
59

@<SCITEGIC>MOL_PROPERTY
Conf_Id
SciTegic.value.IntegerValue
1599

@<SCITEGIC>MOL_PROPERTY
Probability
SciTegic.value.DoubleValue
0.19

@<SCITEGIC>MOL_PROPERTY
Sum Probability
SciTegic.value.DoubleValue
96.26

@<SCITEGIC>MOL_PROPERTY
Delta G
SciTegic.value.DoubleValue
1.907

@<SCITEGIC>MOL_PROPERTY
G
SciTegic.value.DoubleValue
63.982

@<SCITEGIC>MOL_PROPERTY
E
SciTegic.value.DoubleValue
31.698

@<SCITEGIC>MOL_PROPERTY
-TS
SciTegic.value.DoubleValue
32.284

@<SCITEGIC>MOL_PROPERTY
U+W
SciTegic.value.DoubleValue
11.130

@<SCITEGIC>MOL_PROPERTY
U
SciTegic.value.DoubleValue
13.296

@<SCITEGIC>MOL_PROPERTY
W
SciTegic.value.DoubleValue
-2.166

@<SCITEGIC>MOL_PROPERTY
W(PB)
SciTegic.value.DoubleValue
-4.311

@<SCITEGIC>MOL_PROPERTY
W(SA)
SciTegic.value.DoubleValue
2.146

@<SCITEGIC>MOL_PROPERTY
Valence
SciTegic.value.DoubleValue
18.607

@<SCITEGIC>MOL_PROPERTY
Coulomb
SciTegic.value.DoubleValue
-8.339

@<SCITEGIC>MOL_PROPERTY
VdW
SciTegic.value.DoubleValue
3.028

@<SCITEGIC>MOL_PROPERTY
VdW6
SciTegic.value.DoubleValue
-12.271

@<SCITEGIC>MOL_PROPERTY
VdW12
SciTegic.value.DoubleValue
15.299

@<SCITEGIC>MOL_PROPERTY
Bond
SciTegic.value.DoubleValue
0.424

@<SCITEGIC>MOL_PROPERTY
Angle
SciTegic.value.DoubleValue
4.488

@<SCITEGIC>MOL_PROPERTY
Pdih
SciTegic.value.DoubleValue
13.696

@<SCITEGIC>MOL_PROPERTY
Idih
SciTegic.value.DoubleValue
0.000

@<SCITEGIC>MOL_PROPERTY
Tether
SciTegic.value.DoubleValue
0.000

@<TRIPOS>MOLECULE
guest-s17_vm2.mol2 : vm2 ligand conformer 60
          25          25           1
SMALL
USER_CHARGES
 
@<TRIPOS>ATOM
       1    C1      20.865424   19.436348   20.597461 C.3        1 MOL1        -0.1684
       2    H1      20.547565   18.914949   19.684249 H          1 MOL1         0.0833
       3    H2      21.663860   20.123009   20.284777 H          1 MOL1         0.0833
       4    C2      21.473504   18.397140   21.571014 C.3        1 MOL1        -0.1684
       5    H3      22.141451   18.902625   22.278060 H          1 MOL1         0.0833
       6    H4      22.131610   17.734866   20.992081 H          1 MOL1         0.0833
       7    C3      20.426917   17.529026   22.314363 C.3        1 MOL1        -0.1684
       8    H5      20.644465   16.470065   22.119377 H          1 MOL1         0.0833
       9    H6      19.422131   17.687571   21.905798 H          1 MOL1         0.0833
      10    C4      20.405647   17.741124   23.848983 C.3        1 MOL1        -0.1760
      11    H7      19.520835   17.232134   24.254260 H          1 MOL1         0.0833
      12    H8      21.275045   17.226788   24.278777 H          1 MOL1         0.0833
      13    C5      20.421552   19.206883   24.352234 C.3        1 MOL1         0.1219
      14    H9      21.414310   19.642292   24.176326 H          1 MOL1         0.0790
      15    C6      19.359546   20.135235   23.714228 C.3        1 MOL1        -0.1760
      16    H10     18.453304   19.567675   23.467786 H          1 MOL1         0.0833
      17    H11     19.050098   20.861339   24.478261 H          1 MOL1         0.0833
      18    C7      19.852715   20.957134   22.489559 C.3        1 MOL1        -0.1684
      19    H12     20.893593   21.281582   22.622465 H          1 MOL1         0.0833
      20    H13     19.260119   21.882060   22.467531 H          1 MOL1         0.0833
      21    C8      19.662272   20.268560   21.115378 C.3        1 MOL1        -0.1684
      22    H14     18.747955   19.661707   21.124171 H          1 MOL1         0.0833
      23    H15     19.470341   21.051691   20.369109 H          1 MOL1         0.0833
      24    O1      20.196423   19.171550   25.756780 O.3        1 MOL1        -0.5508
      25    H16     20.908488   18.620381   26.143547 H          1 MOL1         0.3780
@<TRIPOS>BOND
    1     1     2    1
    2     1     3    1
    3     1     4    1
    4     4     5    1
    5     4     6    1
    6     4     7    1
    7     7     8    1
    8     7     9    1
    9     7    10    1
   10    10    11    1
   11    10    12    1
   12    10    13    1
   13    13    14    1
   14    13    15    1
   15    15    16    1
   16    15    17    1
   17    15    18    1
   18    18    19    1
   19    18    20    1
   20     1    21    1
   21    18    21    1
   22    21    22    1
   23    21    23    1
   24    13    24    1
   25    24    25    1
@<TRIPOS>SUBSTRUCTURE
       1 MOL1            1 RESIDUE      1      MOL     
@<SCITEGIC>MOL_PROPERTY
VM2 Rank
SciTegic.value.IntegerValue
60

@<SCITEGIC>MOL_PROPERTY
Conf_Id
SciTegic.value.IntegerValue
1923

@<SCITEGIC>MOL_PROPERTY
Probability
SciTegic.value.DoubleValue
0.18

@<SCITEGIC>MOL_PROPERTY
Sum Probability
SciTegic.value.DoubleValue
96.45

@<SCITEGIC>MOL_PROPERTY
Delta G
SciTegic.value.DoubleValue
1.921

@<SCITEGIC>MOL_PROPERTY
G
SciTegic.value.DoubleValue
63.996

@<SCITEGIC>MOL_PROPERTY
E
SciTegic.value.DoubleValue
31.721

@<SCITEGIC>MOL_PROPERTY
-TS
SciTegic.value.DoubleValue
32.275

@<SCITEGIC>MOL_PROPERTY
U+W
SciTegic.value.DoubleValue
11.153

@<SCITEGIC>MOL_PROPERTY
U
SciTegic.value.DoubleValue
13.313

@<SCITEGIC>MOL_PROPERTY
W
SciTegic.value.DoubleValue
-2.160

@<SCITEGIC>MOL_PROPERTY
W(PB)
SciTegic.value.DoubleValue
-4.301

@<SCITEGIC>MOL_PROPERTY
W(SA)
SciTegic.value.DoubleValue
2.141

@<SCITEGIC>MOL_PROPERTY
Valence
SciTegic.value.DoubleValue
18.589

@<SCITEGIC>MOL_PROPERTY
Coulomb
SciTegic.value.DoubleValue
-8.331

@<SCITEGIC>MOL_PROPERTY
VdW
SciTegic.value.DoubleValue
3.055

@<SCITEGIC>MOL_PROPERTY
VdW6
SciTegic.value.DoubleValue
-12.273

@<SCITEGIC>MOL_PROPERTY
VdW12
SciTegic.value.DoubleValue
15.328

@<SCITEGIC>MOL_PROPERTY
Bond
SciTegic.value.DoubleValue
0.425

@<SCITEGIC>MOL_PROPERTY
Angle
SciTegic.value.DoubleValue
4.506

@<SCITEGIC>MOL_PROPERTY
Pdih
SciTegic.value.DoubleValue
13.659

@<SCITEGIC>MOL_PROPERTY
Idih
SciTegic.value.DoubleValue
0.000

@<SCITEGIC>MOL_PROPERTY
Tether
SciTegic.value.DoubleValue
0.000

@<TRIPOS>MOLECULE
guest-s17_vm2.mol2 : vm2 ligand conformer 61
          25          25           1
SMALL
USER_CHARGES
 
@<TRIPOS>ATOM
       1    C1      20.862412   19.421103   20.595176 C.3        1 MOL1        -0.1684
       2    H1      20.269378   19.563185   19.681407 H          1 MOL1         0.0833
       3    H2      21.912890   19.488450   20.280953 H          1 MOL1         0.0833
       4    C2      20.587937   17.988306   21.124473 C.3        1 MOL1        -0.1684
       5    H3      19.510444   17.780443   21.135827 H          1 MOL1         0.0833
       6    H4      20.999249   17.289414   20.383242 H          1 MOL1         0.0833
       7    C3      21.207581   17.641290   22.500846 C.3        1 MOL1        -0.1684
       8    H5      22.177556   18.140366   22.629024 H          1 MOL1         0.0833
       9    H6      21.433092   16.566071   22.486963 H          1 MOL1         0.0833
      10    C4      20.280862   17.891418   23.724440 C.3        1 MOL1        -0.1760
      11    H7      19.236433   17.659257   23.480717 H          1 MOL1         0.0833
      12    H8      20.569682   17.162529   24.493881 H          1 MOL1         0.0833
      13    C5      20.388367   19.302815   24.351455 C.3        1 MOL1         0.1219
      14    H9      21.401523   19.686600   24.171684 H          1 MOL1         0.0790
      15    C6      19.349332   20.333315   23.841126 C.3        1 MOL1        -0.1760
      16    H10     18.361817   20.079452   24.249270 H          1 MOL1         0.0833
      17    H11     19.609428   21.312810   24.263097 H          1 MOL1         0.0833
      18    C7      19.214485   20.487591   22.305382 C.3        1 MOL1        -0.1684
      19    H12     18.627325   21.393893   22.103871 H          1 MOL1         0.0833
      20    H13     18.608506   19.667153   21.903726 H          1 MOL1         0.0833
      21    C8      20.568779   20.596051   21.559954 C.3        1 MOL1        -0.1684
      22    H14     20.573581   21.525197   20.973830 H          1 MOL1         0.0833
      23    H15     21.400147   20.709010   22.265397 H          1 MOL1         0.0833
      24    O1      20.204245   19.181111   25.757147 O.3        1 MOL1        -0.5508
      25    H16     20.326227   20.076277   26.136894 H          1 MOL1         0.3780
@<TRIPOS>BOND
    1     1     2    1
    2     1     3    1
    3     1     4    1
    4     4     5    1
    5     4     6    1
    6     4     7    1
    7     7     8    1
    8     7     9    1
    9     7    10    1
   10    10    11    1
   11    10    12    1
   12    10    13    1
   13    13    14    1
   14    13    15    1
   15    15    16    1
   16    15    17    1
   17    15    18    1
   18    18    19    1
   19    18    20    1
   20     1    21    1
   21    18    21    1
   22    21    22    1
   23    21    23    1
   24    13    24    1
   25    24    25    1
@<TRIPOS>SUBSTRUCTURE
       1 MOL1            1 RESIDUE      1      MOL     
@<SCITEGIC>MOL_PROPERTY
VM2 Rank
SciTegic.value.IntegerValue
61

@<SCITEGIC>MOL_PROPERTY
Conf_Id
SciTegic.value.IntegerValue
760

@<SCITEGIC>MOL_PROPERTY
Probability
SciTegic.value.DoubleValue
0.18

@<SCITEGIC>MOL_PROPERTY
Sum Probability
SciTegic.value.DoubleValue
96.63

@<SCITEGIC>MOL_PROPERTY
Delta G
SciTegic.value.DoubleValue
1.940

@<SCITEGIC>MOL_PROPERTY
G
SciTegic.value.DoubleValue
64.015

@<SCITEGIC>MOL_PROPERTY
E
SciTegic.value.DoubleValue
31.739

@<SCITEGIC>MOL_PROPERTY
-TS
SciTegic.value.DoubleValue
32.276

@<SCITEGIC>MOL_PROPERTY
U+W
SciTegic.value.DoubleValue
11.172

@<SCITEGIC>MOL_PROPERTY
U
SciTegic.value.DoubleValue
13.313

@<SCITEGIC>MOL_PROPERTY
W
SciTegic.value.DoubleValue
-2.141

@<SCITEGIC>MOL_PROPERTY
W(PB)
SciTegic.value.DoubleValue
-4.307

@<SCITEGIC>MOL_PROPERTY
W(SA)
SciTegic.value.DoubleValue
2.165

@<SCITEGIC>MOL_PROPERTY
Valence
SciTegic.value.DoubleValue
18.589

@<SCITEGIC>MOL_PROPERTY
Coulomb
SciTegic.value.DoubleValue
-8.331

@<SCITEGIC>MOL_PROPERTY
VdW
SciTegic.value.DoubleValue
3.055

@<SCITEGIC>MOL_PROPERTY
VdW6
SciTegic.value.DoubleValue
-12.273

@<SCITEGIC>MOL_PROPERTY
VdW12
SciTegic.value.DoubleValue
15.328

@<SCITEGIC>MOL_PROPERTY
Bond
SciTegic.value.DoubleValue
0.425

@<SCITEGIC>MOL_PROPERTY
Angle
SciTegic.value.DoubleValue
4.505

@<SCITEGIC>MOL_PROPERTY
Pdih
SciTegic.value.DoubleValue
13.659

@<SCITEGIC>MOL_PROPERTY
Idih
SciTegic.value.DoubleValue
0.000

@<SCITEGIC>MOL_PROPERTY
Tether
SciTegic.value.DoubleValue
0.000

@<TRIPOS>MOLECULE
guest-s17_vm2.mol2 : vm2 ligand conformer 62
          25          25           1
SMALL
USER_CHARGES
 
@<TRIPOS>ATOM
       1    C1      19.985535   19.156483   20.853436 C.3        1 MOL1        -0.1684
       2    H1      18.982358   18.967850   21.253023 H          1 MOL1         0.0833
       3    H2      19.837780   19.267008   19.770522 H          1 MOL1         0.0833
       4    C2      20.880656   17.915703   21.091258 C.3        1 MOL1        -0.1684
       5    H3      20.301259   17.019666   20.830018 H          1 MOL1         0.0833
       6    H4      21.718525   17.945767   20.381366 H          1 MOL1         0.0833
       7    C3      21.464980   17.736302   22.517563 C.3        1 MOL1        -0.1684
       8    H5      22.306516   18.422462   22.677786 H          1 MOL1         0.0833
       9    H6      21.910061   16.732638   22.558388 H          1 MOL1         0.0833
      10    C4      20.451679   17.859797   23.684554 C.3        1 MOL1        -0.1760
      11    H7      19.466461   17.484479   23.379768 H          1 MOL1         0.0833
      12    H8      20.792608   17.172917   24.470640 H          1 MOL1         0.0833
      13    C5      20.336166   19.279838   24.306232 C.3        1 MOL1         0.1219
      14    H9      21.304543   19.794741   24.232304 H          1 MOL1         0.0790
      15    C6      19.240876   20.172454   23.672240 C.3        1 MOL1        -0.1760
      16    H10     18.409741   19.547228   23.325380 H          1 MOL1         0.0833
      17    H11     18.806073   20.807441   24.456030 H          1 MOL1         0.0833
      18    C7      19.717106   21.119254   22.537100 C.3        1 MOL1        -0.1684
      19    H12     20.294742   21.942087   22.979999 H          1 MOL1         0.0833
      20    H13     18.830227   21.585440   22.086641 H          1 MOL1         0.0833
      21    C8      20.567268   20.479517   21.412266 C.3        1 MOL1        -0.1684
      22    H14     21.597125   20.340000   21.761141 H          1 MOL1         0.0833
      23    H15     20.646161   21.204218   20.590440 H          1 MOL1         0.0833
      24    O1      20.019734   19.123653   25.685353 O.3        1 MOL1        -0.5508
      25    H16     20.760533   18.626237   26.090547 H          1 MOL1         0.3780
@<TRIPOS>BOND
    1     1     2    1
    2     1     3    1
    3     1     4    1
    4     4     5    1
    5     4     6    1
    6     4     7    1
    7     7     8    1
    8     7     9    1
    9     7    10    1
   10    10    11    1
   11    10    12    1
   12    10    13    1
   13    13    14    1
   14    13    15    1
   15    15    16    1
   16    15    17    1
   17    15    18    1
   18    18    19    1
   19    18    20    1
   20     1    21    1
   21    18    21    1
   22    21    22    1
   23    21    23    1
   24    13    24    1
   25    24    25    1
@<TRIPOS>SUBSTRUCTURE
       1 MOL1            1 RESIDUE      1      MOL     
@<SCITEGIC>MOL_PROPERTY
VM2 Rank
SciTegic.value.IntegerValue
62

@<SCITEGIC>MOL_PROPERTY
Conf_Id
SciTegic.value.IntegerValue
684

@<SCITEGIC>MOL_PROPERTY
Probability
SciTegic.value.DoubleValue
0.18

@<SCITEGIC>MOL_PROPERTY
Sum Probability
SciTegic.value.DoubleValue
96.80

@<SCITEGIC>MOL_PROPERTY
Delta G
SciTegic.value.DoubleValue
1.947

@<SCITEGIC>MOL_PROPERTY
G
SciTegic.value.DoubleValue
64.022

@<SCITEGIC>MOL_PROPERTY
E
SciTegic.value.DoubleValue
31.664

@<SCITEGIC>MOL_PROPERTY
-TS
SciTegic.value.DoubleValue
32.358

@<SCITEGIC>MOL_PROPERTY
U+W
SciTegic.value.DoubleValue
11.096

@<SCITEGIC>MOL_PROPERTY
U
SciTegic.value.DoubleValue
13.320

@<SCITEGIC>MOL_PROPERTY
W
SciTegic.value.DoubleValue
-2.223

@<SCITEGIC>MOL_PROPERTY
W(PB)
SciTegic.value.DoubleValue
-4.382

@<SCITEGIC>MOL_PROPERTY
W(SA)
SciTegic.value.DoubleValue
2.158

@<SCITEGIC>MOL_PROPERTY
Valence
SciTegic.value.DoubleValue
18.430

@<SCITEGIC>MOL_PROPERTY
Coulomb
SciTegic.value.DoubleValue
-8.418

@<SCITEGIC>MOL_PROPERTY
VdW
SciTegic.value.DoubleValue
3.308

@<SCITEGIC>MOL_PROPERTY
VdW6
SciTegic.value.DoubleValue
-12.374

@<SCITEGIC>MOL_PROPERTY
VdW12
SciTegic.value.DoubleValue
15.682

@<SCITEGIC>MOL_PROPERTY
Bond
SciTegic.value.DoubleValue
0.451

@<SCITEGIC>MOL_PROPERTY
Angle
SciTegic.value.DoubleValue
4.194

@<SCITEGIC>MOL_PROPERTY
Pdih
SciTegic.value.DoubleValue
13.785

@<SCITEGIC>MOL_PROPERTY
Idih
SciTegic.value.DoubleValue
0.000

@<SCITEGIC>MOL_PROPERTY
Tether
SciTegic.value.DoubleValue
0.000

@<TRIPOS>MOLECULE
guest-s17_vm2.mol2 : vm2 ligand conformer 63
          25          25           1
SMALL
USER_CHARGES
 
@<TRIPOS>ATOM
       1    C1      20.045284   19.015625   20.851866 C.3        1 MOL1        -0.1684
       2    H1      20.022647   18.832340   19.768977 H          1 MOL1         0.0833
       3    H2      19.195069   18.447841   21.247163 H          1 MOL1         0.0833
       4    C2      21.384447   18.478865   21.417539 C.3        1 MOL1        -0.1684
       5    H3      21.950843   18.013745   20.599193 H          1 MOL1         0.0833
       6    H4      22.021485   19.300035   21.766299 H          1 MOL1         0.0833
       7    C3      21.219822   17.429938   22.544491 C.3        1 MOL1        -0.1684
       8    H5      22.206574   17.245626   22.990841 H          1 MOL1         0.0833
       9    H6      20.912386   16.475858   22.094926 H          1 MOL1         0.0833
      10    C4      20.213008   17.777908   23.674208 C.3        1 MOL1        -0.1760
      11    H7      19.183275   17.650702   23.319581 H          1 MOL1         0.0833
      12    H8      20.334939   17.015380   24.454980 H          1 MOL1         0.0833
      13    C5      20.375590   19.182822   24.305951 C.3        1 MOL1         0.1219
      14    H9      21.427307   19.493630   24.230926 H          1 MOL1         0.0790
      15    C6      19.468136   20.279621   23.682809 C.3        1 MOL1        -0.1760
      16    H10     18.496694   19.864399   23.386339 H          1 MOL1         0.0833
      17    H11     19.243837   21.010216   24.471874 H          1 MOL1         0.0833
      18    C7      20.104484   21.071056   22.511003 C.3        1 MOL1        -0.1684
      19    H12     21.185664   21.171159   22.671105 H          1 MOL1         0.0833
      20    H13     19.719623   22.099424   22.547851 H          1 MOL1         0.0833
      21    C8      19.812978   20.528375   21.086686 C.3        1 MOL1        -0.1684
      22    H14     18.771442   20.760035   20.825243 H          1 MOL1         0.0833
      23    H15     20.430856   21.092749   20.374946 H          1 MOL1         0.0833
      24    O1      20.040254   19.078790   25.685448 O.3        1 MOL1        -0.5508
      25    H16     20.670518   18.441307   26.081458 H          1 MOL1         0.3780
@<TRIPOS>BOND
    1     1     2    1
    2     1     3    1
    3     1     4    1
    4     4     5    1
    5     4     6    1
    6     4     7    1
    7     7     8    1
    8     7     9    1
    9     7    10    1
   10    10    11    1
   11    10    12    1
   12    10    13    1
   13    13    14    1
   14    13    15    1
   15    15    16    1
   16    15    17    1
   17    15    18    1
   18    18    19    1
   19    18    20    1
   20     1    21    1
   21    18    21    1
   22    21    22    1
   23    21    23    1
   24    13    24    1
   25    24    25    1
@<TRIPOS>SUBSTRUCTURE
       1 MOL1            1 RESIDUE      1      MOL     
@<SCITEGIC>MOL_PROPERTY
VM2 Rank
SciTegic.value.IntegerValue
63

@<SCITEGIC>MOL_PROPERTY
Conf_Id
SciTegic.value.IntegerValue
1042

@<SCITEGIC>MOL_PROPERTY
Probability
SciTegic.value.DoubleValue
0.18

@<SCITEGIC>MOL_PROPERTY
Sum Probability
SciTegic.value.DoubleValue
96.98

@<SCITEGIC>MOL_PROPERTY
Delta G
SciTegic.value.DoubleValue
1.950

@<SCITEGIC>MOL_PROPERTY
G
SciTegic.value.DoubleValue
64.025

@<SCITEGIC>MOL_PROPERTY
E
SciTegic.value.DoubleValue
31.663

@<SCITEGIC>MOL_PROPERTY
-TS
SciTegic.value.DoubleValue
32.362

@<SCITEGIC>MOL_PROPERTY
U+W
SciTegic.value.DoubleValue
11.096

@<SCITEGIC>MOL_PROPERTY
U
SciTegic.value.DoubleValue
13.287

@<SCITEGIC>MOL_PROPERTY
W
SciTegic.value.DoubleValue
-2.191

@<SCITEGIC>MOL_PROPERTY
W(PB)
SciTegic.value.DoubleValue
-4.342

@<SCITEGIC>MOL_PROPERTY
W(SA)
SciTegic.value.DoubleValue
2.151

@<SCITEGIC>MOL_PROPERTY
Valence
SciTegic.value.DoubleValue
18.430

@<SCITEGIC>MOL_PROPERTY
Coulomb
SciTegic.value.DoubleValue
-8.446

@<SCITEGIC>MOL_PROPERTY
VdW
SciTegic.value.DoubleValue
3.304

@<SCITEGIC>MOL_PROPERTY
VdW6
SciTegic.value.DoubleValue
-12.366

@<SCITEGIC>MOL_PROPERTY
VdW12
SciTegic.value.DoubleValue
15.670

@<SCITEGIC>MOL_PROPERTY
Bond
SciTegic.value.DoubleValue
0.449

@<SCITEGIC>MOL_PROPERTY
Angle
SciTegic.value.DoubleValue
4.241

@<SCITEGIC>MOL_PROPERTY
Pdih
SciTegic.value.DoubleValue
13.740

@<SCITEGIC>MOL_PROPERTY
Idih
SciTegic.value.DoubleValue
0.000

@<SCITEGIC>MOL_PROPERTY
Tether
SciTegic.value.DoubleValue
0.000

@<TRIPOS>MOLECULE
guest-s17_vm2.mol2 : vm2 ligand conformer 64
          25          25           1
SMALL
USER_CHARGES
 
@<TRIPOS>ATOM
       1    C1      19.987600   19.158903   20.851530 C.3        1 MOL1        -0.1684
       2    H1      18.982054   18.972096   21.245844 H          1 MOL1         0.0833
       3    H2      19.844990   19.270987   19.768084 H          1 MOL1         0.0833
       4    C2      20.878163   17.915171   21.091400 C.3        1 MOL1        -0.1684
       5    H3      20.295436   17.020871   20.831644 H          1 MOL1         0.0833
       6    H4      21.715658   17.941162   20.380912 H          1 MOL1         0.0833
       7    C3      21.463643   17.734859   22.517184 C.3        1 MOL1        -0.1684
       8    H5      22.306783   18.419193   22.676585 H          1 MOL1         0.0833
       9    H6      21.906830   16.730389   22.557702 H          1 MOL1         0.0833
      10    C4      20.453571   17.859854   23.687045 C.3        1 MOL1        -0.1760
      11    H7      19.468969   17.477193   23.390179 H          1 MOL1         0.0833
      12    H8      20.802396   17.182844   24.478675 H          1 MOL1         0.0833
      13    C5      20.335354   19.280398   24.305780 C.3        1 MOL1         0.1219
      14    H9      21.304992   19.792751   24.230706 H          1 MOL1         0.0790
      15    C6      19.238302   20.169902   23.669715 C.3        1 MOL1        -0.1760
      16    H10     18.413342   19.540293   23.315700 H          1 MOL1         0.0833
      17    H11     18.791501   20.802895   24.447924 H          1 MOL1         0.0833
      18    C7      19.717091   21.118982   22.537891 C.3        1 MOL1        -0.1684
      19    H12     20.293440   21.941705   22.982672 H          1 MOL1         0.0833
      20    H13     18.831170   21.585262   22.085542 H          1 MOL1         0.0833
      21    C8      20.569596   20.480325   21.414185 C.3        1 MOL1        -0.1684
      22    H14     20.651043   21.206385   20.593798 H          1 MOL1         0.0833
      23    H15     21.598556   20.339093   21.764998 H          1 MOL1         0.0833
      24    O1      20.020679   19.124604   25.685271 O.3        1 MOL1        -0.5508
      25    H16     20.025537   20.022205   26.078629 H          1 MOL1         0.3780
@<TRIPOS>BOND
    1     1     2    1
    2     1     3    1
    3     1     4    1
    4     4     5    1
    5     4     6    1
    6     4     7    1
    7     7     8    1
    8     7     9    1
    9     7    10    1
   10    10    11    1
   11    10    12    1
   12    10    13    1
   13    13    14    1
   14    13    15    1
   15    15    16    1
   16    15    17    1
   17    15    18    1
   18    18    19    1
   19    18    20    1
   20     1    21    1
   21    18    21    1
   22    21    22    1
   23    21    23    1
   24    13    24    1
   25    24    25    1
@<TRIPOS>SUBSTRUCTURE
       1 MOL1            1 RESIDUE      1      MOL     
@<SCITEGIC>MOL_PROPERTY
VM2 Rank
SciTegic.value.IntegerValue
64

@<SCITEGIC>MOL_PROPERTY
Conf_Id
SciTegic.value.IntegerValue
1173

@<SCITEGIC>MOL_PROPERTY
Probability
SciTegic.value.DoubleValue
0.17

@<SCITEGIC>MOL_PROPERTY
Sum Probability
SciTegic.value.DoubleValue
97.15

@<SCITEGIC>MOL_PROPERTY
Delta G
SciTegic.value.DoubleValue
1.963

@<SCITEGIC>MOL_PROPERTY
G
SciTegic.value.DoubleValue
64.039

@<SCITEGIC>MOL_PROPERTY
E
SciTegic.value.DoubleValue
31.677

@<SCITEGIC>MOL_PROPERTY
-TS
SciTegic.value.DoubleValue
32.362

@<SCITEGIC>MOL_PROPERTY
U+W
SciTegic.value.DoubleValue
11.109

@<SCITEGIC>MOL_PROPERTY
U
SciTegic.value.DoubleValue
13.287

@<SCITEGIC>MOL_PROPERTY
W
SciTegic.value.DoubleValue
-2.178

@<SCITEGIC>MOL_PROPERTY
W(PB)
SciTegic.value.DoubleValue
-4.334

@<SCITEGIC>MOL_PROPERTY
W(SA)
SciTegic.value.DoubleValue
2.156

@<SCITEGIC>MOL_PROPERTY
Valence
SciTegic.value.DoubleValue
18.430

@<SCITEGIC>MOL_PROPERTY
Coulomb
SciTegic.value.DoubleValue
-8.446

@<SCITEGIC>MOL_PROPERTY
VdW
SciTegic.value.DoubleValue
3.304

@<SCITEGIC>MOL_PROPERTY
VdW6
SciTegic.value.DoubleValue
-12.366

@<SCITEGIC>MOL_PROPERTY
VdW12
SciTegic.value.DoubleValue
15.670

@<SCITEGIC>MOL_PROPERTY
Bond
SciTegic.value.DoubleValue
0.449

@<SCITEGIC>MOL_PROPERTY
Angle
SciTegic.value.DoubleValue
4.240

@<SCITEGIC>MOL_PROPERTY
Pdih
SciTegic.value.DoubleValue
13.740

@<SCITEGIC>MOL_PROPERTY
Idih
SciTegic.value.DoubleValue
0.000

@<SCITEGIC>MOL_PROPERTY
Tether
SciTegic.value.DoubleValue
0.000

@<TRIPOS>MOLECULE
guest-s17_vm2.mol2 : vm2 ligand conformer 65
          25          25           1
SMALL
USER_CHARGES
 
@<TRIPOS>ATOM
       1    C1      20.866410   19.422245   20.598200 C.3        1 MOL1        -0.1684
       2    H1      20.278091   19.563985   19.681332 H          1 MOL1         0.0833
       3    H2      21.918404   19.489427   20.289059 H          1 MOL1         0.0833
       4    C2      20.588934   17.989260   21.125549 C.3        1 MOL1        -0.1684
       5    H3      19.511098   17.783059   21.134488 H          1 MOL1         0.0833
       6    H4      21.000381   17.290830   20.383946 H          1 MOL1         0.0833
       7    C3      21.205949   17.638661   22.502204 C.3        1 MOL1        -0.1684
       8    H5      22.176895   18.135483   22.632025 H          1 MOL1         0.0833
       9    H6      21.429035   16.562915   22.486667 H          1 MOL1         0.0833
      10    C4      20.277266   17.889295   23.723875 C.3        1 MOL1        -0.1760
      11    H7      19.232662   17.663479   23.474153 H          1 MOL1         0.0833
      12    H8      20.557763   17.153989   24.489800 H          1 MOL1         0.0833
      13    C5      20.387881   19.301430   24.349122 C.3        1 MOL1         0.1219
      14    H9      21.398651   19.688882   24.164157 H          1 MOL1         0.0790
      15    C6      19.346588   20.329536   23.840322 C.3        1 MOL1        -0.1760
      16    H10     18.360433   20.072723   24.249350 H          1 MOL1         0.0833
      17    H11     19.605818   21.306096   24.269621 H          1 MOL1         0.0833
      18    C7      19.212906   20.489024   22.304663 C.3        1 MOL1        -0.1684
      19    H12     18.627065   21.396873   22.106456 H          1 MOL1         0.0833
      20    H13     18.606242   19.670802   21.899559 H          1 MOL1         0.0833
      21    C8      20.567703   20.598499   21.560119 C.3        1 MOL1        -0.1684
      22    H14     21.397794   20.716649   22.266194 H          1 MOL1         0.0833
      23    H15     20.570344   21.525988   20.971368 H          1 MOL1         0.0833
      24    O1      20.210363   19.185051   25.755948 O.3        1 MOL1        -0.5508
      25    H16     20.922301   18.596061   26.082582 H          1 MOL1         0.3780
@<TRIPOS>BOND
    1     1     2    1
    2     1     3    1
    3     1     4    1
    4     4     5    1
    5     4     6    1
    6     4     7    1
    7     7     8    1
    8     7     9    1
    9     7    10    1
   10    10    11    1
   11    10    12    1
   12    10    13    1
   13    13    14    1
   14    13    15    1
   15    15    16    1
   16    15    17    1
   17    15    18    1
   18    18    19    1
   19    18    20    1
   20     1    21    1
   21    18    21    1
   22    21    22    1
   23    21    23    1
   24    13    24    1
   25    24    25    1
@<TRIPOS>SUBSTRUCTURE
       1 MOL1            1 RESIDUE      1      MOL     
@<SCITEGIC>MOL_PROPERTY
VM2 Rank
SciTegic.value.IntegerValue
65

@<SCITEGIC>MOL_PROPERTY
Conf_Id
SciTegic.value.IntegerValue
1275

@<SCITEGIC>MOL_PROPERTY
Probability
SciTegic.value.DoubleValue
0.17

@<SCITEGIC>MOL_PROPERTY
Sum Probability
SciTegic.value.DoubleValue
97.32

@<SCITEGIC>MOL_PROPERTY
Delta G
SciTegic.value.DoubleValue
1.966

@<SCITEGIC>MOL_PROPERTY
G
SciTegic.value.DoubleValue
64.041

@<SCITEGIC>MOL_PROPERTY
E
SciTegic.value.DoubleValue
31.758

@<SCITEGIC>MOL_PROPERTY
-TS
SciTegic.value.DoubleValue
32.284

@<SCITEGIC>MOL_PROPERTY
U+W
SciTegic.value.DoubleValue
11.190

@<SCITEGIC>MOL_PROPERTY
U
SciTegic.value.DoubleValue
13.296

@<SCITEGIC>MOL_PROPERTY
W
SciTegic.value.DoubleValue
-2.106

@<SCITEGIC>MOL_PROPERTY
W(PB)
SciTegic.value.DoubleValue
-4.268

@<SCITEGIC>MOL_PROPERTY
W(SA)
SciTegic.value.DoubleValue
2.162

@<SCITEGIC>MOL_PROPERTY
Valence
SciTegic.value.DoubleValue
18.607

@<SCITEGIC>MOL_PROPERTY
Coulomb
SciTegic.value.DoubleValue
-8.339

@<SCITEGIC>MOL_PROPERTY
VdW
SciTegic.value.DoubleValue
3.028

@<SCITEGIC>MOL_PROPERTY
VdW6
SciTegic.value.DoubleValue
-12.271

@<SCITEGIC>MOL_PROPERTY
VdW12
SciTegic.value.DoubleValue
15.299

@<SCITEGIC>MOL_PROPERTY
Bond
SciTegic.value.DoubleValue
0.424

@<SCITEGIC>MOL_PROPERTY
Angle
SciTegic.value.DoubleValue
4.488

@<SCITEGIC>MOL_PROPERTY
Pdih
SciTegic.value.DoubleValue
13.696

@<SCITEGIC>MOL_PROPERTY
Idih
SciTegic.value.DoubleValue
0.000

@<SCITEGIC>MOL_PROPERTY
Tether
SciTegic.value.DoubleValue
0.000

@<TRIPOS>MOLECULE
guest-s17_vm2.mol2 : vm2 ligand conformer 66
          25          25           1
SMALL
USER_CHARGES
 
@<TRIPOS>ATOM
       1    C1      20.042283   19.016070   20.853755 C.3        1 MOL1        -0.1684
       2    H1      19.192389   18.451326   21.254208 H          1 MOL1         0.0833
       3    H2      20.014980   18.830348   19.771391 H          1 MOL1         0.0833
       4    C2      21.382285   18.477830   21.415729 C.3        1 MOL1        -0.1684
       5    H3      22.021154   19.298324   21.762748 H          1 MOL1         0.0833
       6    H4      21.946000   18.011960   20.595969 H          1 MOL1         0.0833
       7    C3      21.219871   17.429654   22.543663 C.3        1 MOL1        -0.1684
       8    H5      22.207565   17.245976   22.988184 H          1 MOL1         0.0833
       9    H6      20.911589   16.475070   22.095859 H          1 MOL1         0.0833
      10    C4      20.216444   17.777818   23.676660 C.3        1 MOL1        -0.1760
      11    H7      19.185359   17.643273   23.329143 H          1 MOL1         0.0833
      12    H8      20.348244   17.022232   24.462985 H          1 MOL1         0.0833
      13    C5      20.375670   19.183696   24.306360 C.3        1 MOL1         0.1219
      14    H9      21.428284   19.491740   24.232498 H          1 MOL1         0.0790
      15    C6      19.466702   20.278306   23.680301 C.3        1 MOL1        -0.1760
      16    H10     18.499970   19.857430   23.375829 H          1 MOL1         0.0833
      17    H11     19.229822   21.010365   24.463849 H          1 MOL1         0.0833
      18    C7      20.106518   21.071024   22.511484 C.3        1 MOL1        -0.1684
      19    H12     21.187805   21.168715   22.672558 H          1 MOL1         0.0833
      20    H13     19.723547   22.100129   22.548658 H          1 MOL1         0.0833
      21    C8      19.815416   20.529897   21.086560 C.3        1 MOL1        -0.1684
      22    H14     20.436605   21.091592   20.375575 H          1 MOL1         0.0833
      23    H15     18.775125   20.765243   20.823431 H          1 MOL1         0.0833
      24    O1      20.038811   19.078704   25.685489 O.3        1 MOL1        -0.5508
      25    H16     20.220909   19.953420   26.088106 H          1 MOL1         0.3780
@<TRIPOS>BOND
    1     1     2    1
    2     1     3    1
    3     1     4    1
    4     4     5    1
    5     4     6    1
    6     4     7    1
    7     7     8    1
    8     7     9    1
    9     7    10    1
   10    10    11    1
   11    10    12    1
   12    10    13    1
   13    13    14    1
   14    13    15    1
   15    15    16    1
   16    15    17    1
   17    15    18    1
   18    18    19    1
   19    18    20    1
   20     1    21    1
   21    18    21    1
   22    21    22    1
   23    21    23    1
   24    13    24    1
   25    24    25    1
@<TRIPOS>SUBSTRUCTURE
       1 MOL1            1 RESIDUE      1      MOL     
@<SCITEGIC>MOL_PROPERTY
VM2 Rank
SciTegic.value.IntegerValue
66

@<SCITEGIC>MOL_PROPERTY
Conf_Id
SciTegic.value.IntegerValue
1288

@<SCITEGIC>MOL_PROPERTY
Probability
SciTegic.value.DoubleValue
0.17

@<SCITEGIC>MOL_PROPERTY
Sum Probability
SciTegic.value.DoubleValue
97.49

@<SCITEGIC>MOL_PROPERTY
Delta G
SciTegic.value.DoubleValue
1.969

@<SCITEGIC>MOL_PROPERTY
G
SciTegic.value.DoubleValue
64.044

@<SCITEGIC>MOL_PROPERTY
E
SciTegic.value.DoubleValue
31.686

@<SCITEGIC>MOL_PROPERTY
-TS
SciTegic.value.DoubleValue
32.358

@<SCITEGIC>MOL_PROPERTY
U+W
SciTegic.value.DoubleValue
11.119

@<SCITEGIC>MOL_PROPERTY
U
SciTegic.value.DoubleValue
13.320

@<SCITEGIC>MOL_PROPERTY
W
SciTegic.value.DoubleValue
-2.201

@<SCITEGIC>MOL_PROPERTY
W(PB)
SciTegic.value.DoubleValue
-4.348

@<SCITEGIC>MOL_PROPERTY
W(SA)
SciTegic.value.DoubleValue
2.147

@<SCITEGIC>MOL_PROPERTY
Valence
SciTegic.value.DoubleValue
18.430

@<SCITEGIC>MOL_PROPERTY
Coulomb
SciTegic.value.DoubleValue
-8.418

@<SCITEGIC>MOL_PROPERTY
VdW
SciTegic.value.DoubleValue
3.308

@<SCITEGIC>MOL_PROPERTY
VdW6
SciTegic.value.DoubleValue
-12.374

@<SCITEGIC>MOL_PROPERTY
VdW12
SciTegic.value.DoubleValue
15.682

@<SCITEGIC>MOL_PROPERTY
Bond
SciTegic.value.DoubleValue
0.451

@<SCITEGIC>MOL_PROPERTY
Angle
SciTegic.value.DoubleValue
4.194

@<SCITEGIC>MOL_PROPERTY
Pdih
SciTegic.value.DoubleValue
13.785

@<SCITEGIC>MOL_PROPERTY
Idih
SciTegic.value.DoubleValue
0.000

@<SCITEGIC>MOL_PROPERTY
Tether
SciTegic.value.DoubleValue
0.000

@<TRIPOS>MOLECULE
guest-s17_vm2.mol2 : vm2 ligand conformer 67
          25          25           1
SMALL
USER_CHARGES
 
@<TRIPOS>ATOM
       1    C1      20.041034   19.014827   20.853155 C.3        1 MOL1        -0.1684
       2    H1      19.191780   18.448487   21.252514 H          1 MOL1         0.0833
       3    H2      20.013953   18.830498   19.770541 H          1 MOL1         0.0833
       4    C2      21.381913   18.477662   21.414084 C.3        1 MOL1        -0.1684
       5    H3      21.944202   18.010185   20.594254 H          1 MOL1         0.0833
       6    H4      22.021617   19.298712   21.758195 H          1 MOL1         0.0833
       7    C3      21.222064   17.431588   22.544206 C.3        1 MOL1        -0.1684
       8    H5      22.210148   17.251838   22.989541 H          1 MOL1         0.0833
       9    H6      20.917278   16.475194   22.097809 H          1 MOL1         0.0833
      10    C4      20.216775   17.778008   23.675826 C.3        1 MOL1        -0.1760
      11    H7      19.187062   17.642930   23.324032 H          1 MOL1         0.0833
      12    H8      20.350049   17.019797   24.459525 H          1 MOL1         0.0833
      13    C5      20.375387   19.183343   24.307198 C.3        1 MOL1         0.1219
      14    H9      21.428008   19.492256   24.239848 H          1 MOL1         0.0790
      15    C6      19.470310   20.281679   23.682973 C.3        1 MOL1        -0.1760
      16    H10     18.498426   19.869374   23.383280 H          1 MOL1         0.0833
      17    H11     19.248225   21.016102   24.469292 H          1 MOL1         0.0833
      18    C7      20.109116   21.070015   22.510820 C.3        1 MOL1        -0.1684
      19    H12     21.190969   21.165038   22.669616 H          1 MOL1         0.0833
      20    H13     19.729267   22.100271   22.547720 H          1 MOL1         0.0833
      21    C8      19.812470   20.528128   21.087369 C.3        1 MOL1        -0.1684
      22    H14     20.430018   21.090726   20.373928 H          1 MOL1         0.0833
      23    H15     18.770845   20.762142   20.828375 H          1 MOL1         0.0833
      24    O1      20.034933   19.077751   25.684369 O.3        1 MOL1        -0.5508
      25    H16     19.095149   18.803905   25.716214 H          1 MOL1         0.3780
@<TRIPOS>BOND
    1     1     2    1
    2     1     3    1
    3     1     4    1
    4     4     5    1
    5     4     6    1
    6     4     7    1
    7     7     8    1
    8     7     9    1
    9     7    10    1
   10    10    11    1
   11    10    12    1
   12    10    13    1
   13    13    14    1
   14    13    15    1
   15    15    16    1
   16    15    17    1
   17    15    18    1
   18    18    19    1
   19    18    20    1
   20     1    21    1
   21    18    21    1
   22    21    22    1
   23    21    23    1
   24    13    24    1
   25    24    25    1
@<TRIPOS>SUBSTRUCTURE
       1 MOL1            1 RESIDUE      1      MOL     
@<SCITEGIC>MOL_PROPERTY
VM2 Rank
SciTegic.value.IntegerValue
67

@<SCITEGIC>MOL_PROPERTY
Conf_Id
SciTegic.value.IntegerValue
559

@<SCITEGIC>MOL_PROPERTY
Probability
SciTegic.value.DoubleValue
0.17

@<SCITEGIC>MOL_PROPERTY
Sum Probability
SciTegic.value.DoubleValue
97.66

@<SCITEGIC>MOL_PROPERTY
Delta G
SciTegic.value.DoubleValue
1.983

@<SCITEGIC>MOL_PROPERTY
G
SciTegic.value.DoubleValue
64.059

@<SCITEGIC>MOL_PROPERTY
E
SciTegic.value.DoubleValue
31.724

@<SCITEGIC>MOL_PROPERTY
-TS
SciTegic.value.DoubleValue
32.335

@<SCITEGIC>MOL_PROPERTY
U+W
SciTegic.value.DoubleValue
11.156

@<SCITEGIC>MOL_PROPERTY
U
SciTegic.value.DoubleValue
13.141

@<SCITEGIC>MOL_PROPERTY
W
SciTegic.value.DoubleValue
-1.984

@<SCITEGIC>MOL_PROPERTY
W(PB)
SciTegic.value.DoubleValue
-4.127

@<SCITEGIC>MOL_PROPERTY
W(SA)
SciTegic.value.DoubleValue
2.143

@<SCITEGIC>MOL_PROPERTY
Valence
SciTegic.value.DoubleValue
18.807

@<SCITEGIC>MOL_PROPERTY
Coulomb
SciTegic.value.DoubleValue
-8.930

@<SCITEGIC>MOL_PROPERTY
VdW
SciTegic.value.DoubleValue
3.264

@<SCITEGIC>MOL_PROPERTY
VdW6
SciTegic.value.DoubleValue
-12.382

@<SCITEGIC>MOL_PROPERTY
VdW12
SciTegic.value.DoubleValue
15.646

@<SCITEGIC>MOL_PROPERTY
Bond
SciTegic.value.DoubleValue
0.441

@<SCITEGIC>MOL_PROPERTY
Angle
SciTegic.value.DoubleValue
4.299

@<SCITEGIC>MOL_PROPERTY
Pdih
SciTegic.value.DoubleValue
14.067

@<SCITEGIC>MOL_PROPERTY
Idih
SciTegic.value.DoubleValue
0.000

@<SCITEGIC>MOL_PROPERTY
Tether
SciTegic.value.DoubleValue
0.000

@<TRIPOS>MOLECULE
guest-s17_vm2.mol2 : vm2 ligand conformer 68
          25          25           1
SMALL
USER_CHARGES
 
@<TRIPOS>ATOM
       1    C1      19.984039   19.156759   20.852778 C.3        1 MOL1        -0.1684
       2    H1      18.980089   18.969938   21.251077 H          1 MOL1         0.0833
       3    H2      19.837630   19.266577   19.769604 H          1 MOL1         0.0833
       4    C2      20.877218   17.914918   21.092039 C.3        1 MOL1        -0.1684
       5    H3      20.295730   17.019091   20.834770 H          1 MOL1         0.0833
       6    H4      21.713225   17.941629   20.379818 H          1 MOL1         0.0833
       7    C3      21.465801   17.738557   22.516930 C.3        1 MOL1        -0.1684
       8    H5      22.306039   18.426782   22.675042 H          1 MOL1         0.0833
       9    H6      21.913655   16.736130   22.557451 H          1 MOL1         0.0833
      10    C4      20.456161   17.859792   23.687151 C.3        1 MOL1        -0.1760
      11    H7      19.473184   17.475019   23.387025 H          1 MOL1         0.0833
      12    H8      20.809056   17.181427   24.476000 H          1 MOL1         0.0833
      13    C5      20.335541   19.279763   24.307063 C.3        1 MOL1         0.1219
      14    H9      21.304648   19.793840   24.239774 H          1 MOL1         0.0790
      15    C6      19.241356   20.172712   23.671333 C.3        1 MOL1        -0.1760
      16    H10     18.410752   19.549031   23.320001 H          1 MOL1         0.0833
      17    H11     18.805801   20.810616   24.452485 H          1 MOL1         0.0833
      18    C7      19.720537   21.119569   22.537746 C.3        1 MOL1        -0.1684
      19    H12     20.301342   21.939668   22.981646 H          1 MOL1         0.0833
      20    H13     18.835078   21.589773   22.088609 H          1 MOL1         0.0833
      21    C8      20.567396   20.479438   21.410774 C.3        1 MOL1        -0.1684
      22    H14     21.598167   20.339814   21.756859 H          1 MOL1         0.0833
      23    H15     20.644425   21.204356   20.588954 H          1 MOL1         0.0833
      24    O1      20.015951   19.121492   25.684186 O.3        1 MOL1        -0.5508
      25    H16     19.152125   18.661068   25.715977 H          1 MOL1         0.3780
@<TRIPOS>BOND
    1     1     2    1
    2     1     3    1
    3     1     4    1
    4     4     5    1
    5     4     6    1
    6     4     7    1
    7     7     8    1
    8     7     9    1
    9     7    10    1
   10    10    11    1
   11    10    12    1
   12    10    13    1
   13    13    14    1
   14    13    15    1
   15    15    16    1
   16    15    17    1
   17    15    18    1
   18    18    19    1
   19    18    20    1
   20     1    21    1
   21    18    21    1
   22    21    22    1
   23    21    23    1
   24    13    24    1
   25    24    25    1
@<TRIPOS>SUBSTRUCTURE
       1 MOL1            1 RESIDUE      1      MOL     
@<SCITEGIC>MOL_PROPERTY
VM2 Rank
SciTegic.value.IntegerValue
68

@<SCITEGIC>MOL_PROPERTY
Conf_Id
SciTegic.value.IntegerValue
198

@<SCITEGIC>MOL_PROPERTY
Probability
SciTegic.value.DoubleValue
0.16

@<SCITEGIC>MOL_PROPERTY
Sum Probability
SciTegic.value.DoubleValue
97.82

@<SCITEGIC>MOL_PROPERTY
Delta G
SciTegic.value.DoubleValue
2.001

@<SCITEGIC>MOL_PROPERTY
G
SciTegic.value.DoubleValue
64.076

@<SCITEGIC>MOL_PROPERTY
E
SciTegic.value.DoubleValue
31.741

@<SCITEGIC>MOL_PROPERTY
-TS
SciTegic.value.DoubleValue
32.335

@<SCITEGIC>MOL_PROPERTY
U+W
SciTegic.value.DoubleValue
11.174

@<SCITEGIC>MOL_PROPERTY
U
SciTegic.value.DoubleValue
13.140

@<SCITEGIC>MOL_PROPERTY
W
SciTegic.value.DoubleValue
-1.967

@<SCITEGIC>MOL_PROPERTY
W(PB)
SciTegic.value.DoubleValue
-4.109

@<SCITEGIC>MOL_PROPERTY
W(SA)
SciTegic.value.DoubleValue
2.143

@<SCITEGIC>MOL_PROPERTY
Valence
SciTegic.value.DoubleValue
18.807

@<SCITEGIC>MOL_PROPERTY
Coulomb
SciTegic.value.DoubleValue
-8.930

@<SCITEGIC>MOL_PROPERTY
VdW
SciTegic.value.DoubleValue
3.263

@<SCITEGIC>MOL_PROPERTY
VdW6
SciTegic.value.DoubleValue
-12.382

@<SCITEGIC>MOL_PROPERTY
VdW12
SciTegic.value.DoubleValue
15.645

@<SCITEGIC>MOL_PROPERTY
Bond
SciTegic.value.DoubleValue
0.441

@<SCITEGIC>MOL_PROPERTY
Angle
SciTegic.value.DoubleValue
4.299

@<SCITEGIC>MOL_PROPERTY
Pdih
SciTegic.value.DoubleValue
14.067

@<SCITEGIC>MOL_PROPERTY
Idih
SciTegic.value.DoubleValue
0.000

@<SCITEGIC>MOL_PROPERTY
Tether
SciTegic.value.DoubleValue
0.000

@<TRIPOS>MOLECULE
guest-s17_vm2.mol2 : vm2 ligand conformer 69
          25          25           1
SMALL
USER_CHARGES
 
@<TRIPOS>ATOM
       1    C1      20.866118   19.436583   20.598548 C.3        1 MOL1        -0.1684
       2    H1      20.549126   18.915484   19.684860 H          1 MOL1         0.0833
       3    H2      21.663988   20.124257   20.286641 H          1 MOL1         0.0833
       4    C2      21.474770   18.397248   21.571599 C.3        1 MOL1        -0.1684
       5    H3      22.133666   17.736100   20.992279 H          1 MOL1         0.0833
       6    H4      22.142060   18.902379   22.279568 H          1 MOL1         0.0833
       7    C3      20.428681   17.527429   22.313535 C.3        1 MOL1        -0.1684
       8    H5      20.649948   16.468872   22.120516 H          1 MOL1         0.0833
       9    H6      19.424694   17.682533   21.901655 H          1 MOL1         0.0833
      10    C4      20.402701   17.740714   23.847970 C.3        1 MOL1        -0.1760
      11    H7      19.519584   17.227252   24.250254 H          1 MOL1         0.0833
      12    H8      21.272492   17.230554   24.282506 H          1 MOL1         0.0833
      13    C5      20.418977   19.206487   24.351013 C.3        1 MOL1         0.1219
      14    H9      21.412831   19.639179   24.175788 H          1 MOL1         0.0790
      15    C6      19.358046   20.137843   23.715347 C.3        1 MOL1        -0.1760
      16    H10     18.449701   19.574112   23.467164 H          1 MOL1         0.0833
      17    H11     19.052575   20.867780   24.477468 H          1 MOL1         0.0833
      18    C7      19.852778   20.957241   22.489890 C.3        1 MOL1        -0.1684
      19    H12     20.894153   21.280254   22.622774 H          1 MOL1         0.0833
      20    H13     19.261754   21.883162   22.466166 H          1 MOL1         0.0833
      21    C8      19.661931   20.267102   21.116595 C.3        1 MOL1        -0.1684
      22    H14     18.748543   19.658890   21.126328 H          1 MOL1         0.0833
      23    H15     19.468362   21.049341   20.369804 H          1 MOL1         0.0833
      24    O1      20.199998   19.172353   25.755504 O.3        1 MOL1        -0.5508
      25    H16     19.302494   18.803370   25.887070 H          1 MOL1         0.3780
@<TRIPOS>BOND
    1     1     2    1
    2     1     3    1
    3     1     4    1
    4     4     5    1
    5     4     6    1
    6     4     7    1
    7     7     8    1
    8     7     9    1
    9     7    10    1
   10    10    11    1
   11    10    12    1
   12    10    13    1
   13    13    14    1
   14    13    15    1
   15    15    16    1
   16    15    17    1
   17    15    18    1
   18    18    19    1
   19    18    20    1
   20     1    21    1
   21    18    21    1
   22    21    22    1
   23    21    23    1
   24    13    24    1
   25    24    25    1
@<TRIPOS>SUBSTRUCTURE
       1 MOL1            1 RESIDUE      1      MOL     
@<SCITEGIC>MOL_PROPERTY
VM2 Rank
SciTegic.value.IntegerValue
69

@<SCITEGIC>MOL_PROPERTY
Conf_Id
SciTegic.value.IntegerValue
654

@<SCITEGIC>MOL_PROPERTY
Probability
SciTegic.value.DoubleValue
0.16

@<SCITEGIC>MOL_PROPERTY
Sum Probability
SciTegic.value.DoubleValue
97.97

@<SCITEGIC>MOL_PROPERTY
Delta G
SciTegic.value.DoubleValue
2.011

@<SCITEGIC>MOL_PROPERTY
G
SciTegic.value.DoubleValue
64.086

@<SCITEGIC>MOL_PROPERTY
E
SciTegic.value.DoubleValue
31.829

@<SCITEGIC>MOL_PROPERTY
-TS
SciTegic.value.DoubleValue
32.257

@<SCITEGIC>MOL_PROPERTY
U+W
SciTegic.value.DoubleValue
11.262

@<SCITEGIC>MOL_PROPERTY
U
SciTegic.value.DoubleValue
13.202

@<SCITEGIC>MOL_PROPERTY
W
SciTegic.value.DoubleValue
-1.941

@<SCITEGIC>MOL_PROPERTY
W(PB)
SciTegic.value.DoubleValue
-4.073

@<SCITEGIC>MOL_PROPERTY
W(SA)
SciTegic.value.DoubleValue
2.132

@<SCITEGIC>MOL_PROPERTY
Valence
SciTegic.value.DoubleValue
18.957

@<SCITEGIC>MOL_PROPERTY
Coulomb
SciTegic.value.DoubleValue
-8.753

@<SCITEGIC>MOL_PROPERTY
VdW
SciTegic.value.DoubleValue
2.998

@<SCITEGIC>MOL_PROPERTY
VdW6
SciTegic.value.DoubleValue
-12.294

@<SCITEGIC>MOL_PROPERTY
VdW12
SciTegic.value.DoubleValue
15.292

@<SCITEGIC>MOL_PROPERTY
Bond
SciTegic.value.DoubleValue
0.419

@<SCITEGIC>MOL_PROPERTY
Angle
SciTegic.value.DoubleValue
4.543

@<SCITEGIC>MOL_PROPERTY
Pdih
SciTegic.value.DoubleValue
13.996

@<SCITEGIC>MOL_PROPERTY
Idih
SciTegic.value.DoubleValue
0.000

@<SCITEGIC>MOL_PROPERTY
Tether
SciTegic.value.DoubleValue
0.000

@<TRIPOS>MOLECULE
guest-s17_vm2.mol2 : vm2 ligand conformer 70
          25          25           1
SMALL
USER_CHARGES
 
@<TRIPOS>ATOM
       1    C1      20.941055   19.392298   20.763985 C.3        1 MOL1        -0.1684
       2    H1      21.030691   19.421732   19.669423 H          1 MOL1         0.0833
       3    H2      21.866171   19.853312   21.132525 H          1 MOL1         0.0833
       4    C2      20.874712   17.896837   21.173002 C.3        1 MOL1        -0.1684
       5    H3      20.149970   17.383778   20.526293 H          1 MOL1         0.0833
       6    H4      21.848498   17.438930   20.952095 H          1 MOL1         0.0833
       7    C3      20.507230   17.595171   22.646004 C.3        1 MOL1        -0.1684
       8    H5      20.709203   16.533194   22.840353 H          1 MOL1         0.0833
       9    H6      19.424813   17.702890   22.783413 H          1 MOL1         0.0833
      10    C4      21.284922   18.448733   23.682393 C.3        1 MOL1        -0.1760
      11    H7      21.828089   17.774957   24.357665 H          1 MOL1         0.0833
      12    H8      22.069923   19.036244   23.194352 H          1 MOL1         0.0833
      13    C5      20.405024   19.395016   24.533498 C.3        1 MOL1         0.1219
      14    H9      21.079822   20.095806   25.045973 H          1 MOL1         0.0790
      15    C6      19.350709   20.229441   23.763121 C.3        1 MOL1        -0.1760
      16    H10     18.492025   19.605305   23.486694 H          1 MOL1         0.0833
      17    H11     18.949886   20.961608   24.476203 H          1 MOL1         0.0833
      18    C7      19.860882   21.007181   22.522141 C.3        1 MOL1        -0.1684
      19    H12     20.889612   21.359031   22.677323 H          1 MOL1         0.0833
      20    H13     19.251128   21.917914   22.445341 H          1 MOL1         0.0833
      21    C8      19.721731   20.258505   21.167267 C.3        1 MOL1        -0.1684
      22    H14     18.796034   19.668455   21.133189 H          1 MOL1         0.0833
      23    H15     19.605607   21.026329   20.390029 H          1 MOL1         0.0833
      24    O1      19.717736   18.619817   25.508590 O.3        1 MOL1        -0.5508
      25    H16     20.396905   18.097927   25.983433 H          1 MOL1         0.3780
@<TRIPOS>BOND
    1     1     2    1
    2     1     3    1
    3     1     4    1
    4     4     5    1
    5     4     6    1
    6     4     7    1
    7     7     8    1
    8     7     9    1
    9     7    10    1
   10    10    11    1
   11    10    12    1
   12    10    13    1
   13    13    14    1
   14    13    15    1
   15    15    16    1
   16    15    17    1
   17    15    18    1
   18    18    19    1
   19    18    20    1
   20     1    21    1
   21    18    21    1
   22    21    22    1
   23    21    23    1
   24    13    24    1
   25    24    25    1
@<TRIPOS>SUBSTRUCTURE
       1 MOL1            1 RESIDUE      1      MOL     
@<SCITEGIC>MOL_PROPERTY
VM2 Rank
SciTegic.value.IntegerValue
70

@<SCITEGIC>MOL_PROPERTY
Conf_Id
SciTegic.value.IntegerValue
1258

@<SCITEGIC>MOL_PROPERTY
Probability
SciTegic.value.DoubleValue
0.15

@<SCITEGIC>MOL_PROPERTY
Sum Probability
SciTegic.value.DoubleValue
98.13

@<SCITEGIC>MOL_PROPERTY
Delta G
SciTegic.value.DoubleValue
2.030

@<SCITEGIC>MOL_PROPERTY
G
SciTegic.value.DoubleValue
64.106

@<SCITEGIC>MOL_PROPERTY
E
SciTegic.value.DoubleValue
31.817

@<SCITEGIC>MOL_PROPERTY
-TS
SciTegic.value.DoubleValue
32.288

@<SCITEGIC>MOL_PROPERTY
U+W
SciTegic.value.DoubleValue
11.250

@<SCITEGIC>MOL_PROPERTY
U
SciTegic.value.DoubleValue
13.420

@<SCITEGIC>MOL_PROPERTY
W
SciTegic.value.DoubleValue
-2.170

@<SCITEGIC>MOL_PROPERTY
W(PB)
SciTegic.value.DoubleValue
-4.300

@<SCITEGIC>MOL_PROPERTY
W(SA)
SciTegic.value.DoubleValue
2.131

@<SCITEGIC>MOL_PROPERTY
Valence
SciTegic.value.DoubleValue
18.609

@<SCITEGIC>MOL_PROPERTY
Coulomb
SciTegic.value.DoubleValue
-8.052

@<SCITEGIC>MOL_PROPERTY
VdW
SciTegic.value.DoubleValue
2.863

@<SCITEGIC>MOL_PROPERTY
VdW6
SciTegic.value.DoubleValue
-12.525

@<SCITEGIC>MOL_PROPERTY
VdW12
SciTegic.value.DoubleValue
15.388

@<SCITEGIC>MOL_PROPERTY
Bond
SciTegic.value.DoubleValue
0.430

@<SCITEGIC>MOL_PROPERTY
Angle
SciTegic.value.DoubleValue
4.723

@<SCITEGIC>MOL_PROPERTY
Pdih
SciTegic.value.DoubleValue
13.455

@<SCITEGIC>MOL_PROPERTY
Idih
SciTegic.value.DoubleValue
0.000

@<SCITEGIC>MOL_PROPERTY
Tether
SciTegic.value.DoubleValue
0.000

@<TRIPOS>MOLECULE
guest-s17_vm2.mol2 : vm2 ligand conformer 71
          25          25           1
SMALL
USER_CHARGES
 
@<TRIPOS>ATOM
       1    C1      20.918730   19.539611   20.775626 C.3        1 MOL1        -0.1684
       2    H1      21.020780   19.588034   19.682828 H          1 MOL1         0.0833
       3    H2      21.892596   19.866097   21.161872 H          1 MOL1         0.0833
       4    C2      20.663035   18.062718   21.166918 C.3        1 MOL1        -0.1684
       5    H3      19.592027   17.825265   21.114088 H          1 MOL1         0.0833
       6    H4      21.136712   17.441953   20.393989 H          1 MOL1         0.0833
       7    C3      21.268778   17.624680   22.529545 C.3        1 MOL1        -0.1684
       8    H5      22.242179   18.102710   22.703168 H          1 MOL1         0.0833
       9    H6      21.483174   16.550007   22.450527 H          1 MOL1         0.0833
      10    C4      20.337901   17.807077   23.756485 C.3        1 MOL1        -0.1760
      11    H7      19.294090   17.642462   23.462110 H          1 MOL1         0.0833
      12    H8      20.560778   17.002205   24.469030 H          1 MOL1         0.0833
      13    C5      20.480392   19.138539   24.536372 C.3        1 MOL1         0.1219
      14    H9      21.444650   19.117694   25.064447 H          1 MOL1         0.0790
      15    C6      20.446793   20.434355   23.691507 C.3        1 MOL1        -0.1760
      16    H10     20.343080   21.291214   24.369766 H          1 MOL1         0.0833
      17    H11     21.425076   20.576927   23.220111 H          1 MOL1         0.0833
      18    C7      19.310355   20.493172   22.636742 C.3        1 MOL1        -0.1684
      19    H12     18.698838   21.385719   22.825866 H          1 MOL1         0.0833
      20    H13     18.619283   19.650725   22.758450 H          1 MOL1         0.0833
      21    C8      19.807447   20.547631   21.171914 C.3        1 MOL1        -0.1684
      22    H14     18.942907   20.401099   20.510240 H          1 MOL1         0.0833
      23    H15     20.175382   21.561256   20.962328 H          1 MOL1         0.0833
      24    O1      19.430569   19.195218   25.494891 O.3        1 MOL1        -0.5508
      25    H16     19.533903   20.041876   25.976149 H          1 MOL1         0.3780
@<TRIPOS>BOND
    1     1     2    1
    2     1     3    1
    3     1     4    1
    4     4     5    1
    5     4     6    1
    6     4     7    1
    7     7     8    1
    8     7     9    1
    9     7    10    1
   10    10    11    1
   11    10    12    1
   12    10    13    1
   13    13    14    1
   14    13    15    1
   15    15    16    1
   16    15    17    1
   17    15    18    1
   18    18    19    1
   19    18    20    1
   20     1    21    1
   21    18    21    1
   22    21    22    1
   23    21    23    1
   24    13    24    1
   25    24    25    1
@<TRIPOS>SUBSTRUCTURE
       1 MOL1            1 RESIDUE      1      MOL     
@<SCITEGIC>MOL_PROPERTY
VM2 Rank
SciTegic.value.IntegerValue
71

@<SCITEGIC>MOL_PROPERTY
Conf_Id
SciTegic.value.IntegerValue
1233

@<SCITEGIC>MOL_PROPERTY
Probability
SciTegic.value.DoubleValue
0.15

@<SCITEGIC>MOL_PROPERTY
Sum Probability
SciTegic.value.DoubleValue
98.28

@<SCITEGIC>MOL_PROPERTY
Delta G
SciTegic.value.DoubleValue
2.031

@<SCITEGIC>MOL_PROPERTY
G
SciTegic.value.DoubleValue
64.107

@<SCITEGIC>MOL_PROPERTY
E
SciTegic.value.DoubleValue
31.820

@<SCITEGIC>MOL_PROPERTY
-TS
SciTegic.value.DoubleValue
32.287

@<SCITEGIC>MOL_PROPERTY
U+W
SciTegic.value.DoubleValue
11.252

@<SCITEGIC>MOL_PROPERTY
U
SciTegic.value.DoubleValue
13.420

@<SCITEGIC>MOL_PROPERTY
W
SciTegic.value.DoubleValue
-2.168

@<SCITEGIC>MOL_PROPERTY
W(PB)
SciTegic.value.DoubleValue
-4.325

@<SCITEGIC>MOL_PROPERTY
W(SA)
SciTegic.value.DoubleValue
2.157

@<SCITEGIC>MOL_PROPERTY
Valence
SciTegic.value.DoubleValue
18.609

@<SCITEGIC>MOL_PROPERTY
Coulomb
SciTegic.value.DoubleValue
-8.052

@<SCITEGIC>MOL_PROPERTY
VdW
SciTegic.value.DoubleValue
2.863

@<SCITEGIC>MOL_PROPERTY
VdW6
SciTegic.value.DoubleValue
-12.524

@<SCITEGIC>MOL_PROPERTY
VdW12
SciTegic.value.DoubleValue
15.387

@<SCITEGIC>MOL_PROPERTY
Bond
SciTegic.value.DoubleValue
0.430

@<SCITEGIC>MOL_PROPERTY
Angle
SciTegic.value.DoubleValue
4.723

@<SCITEGIC>MOL_PROPERTY
Pdih
SciTegic.value.DoubleValue
13.455

@<SCITEGIC>MOL_PROPERTY
Idih
SciTegic.value.DoubleValue
0.000

@<SCITEGIC>MOL_PROPERTY
Tether
SciTegic.value.DoubleValue
0.000

@<TRIPOS>MOLECULE
guest-s17_vm2.mol2 : vm2 ligand conformer 72
          25          25           1
SMALL
USER_CHARGES
 
@<TRIPOS>ATOM
       1    C1      20.863149   19.421364   20.596288 C.3        1 MOL1        -0.1684
       2    H1      20.271023   19.563843   19.681991 H          1 MOL1         0.0833
       3    H2      21.913960   19.487531   20.282925 H          1 MOL1         0.0833
       4    C2      20.586632   17.989082   21.125727 C.3        1 MOL1        -0.1684
       5    H3      19.508836   17.782928   21.138014 H          1 MOL1         0.0833
       6    H4      20.996090   17.289630   20.383986 H          1 MOL1         0.0833
       7    C3      21.207642   17.641197   22.501218 C.3        1 MOL1        -0.1684
       8    H5      22.176997   18.141581   22.629360 H          1 MOL1         0.0833
       9    H6      21.434899   16.566342   22.485642 H          1 MOL1         0.0833
      10    C4      20.281576   17.888522   23.725618 C.3        1 MOL1        -0.1760
      11    H7      19.238323   17.652153   23.480199 H          1 MOL1         0.0833
      12    H8      20.575906   17.159691   24.493163 H          1 MOL1         0.0833
      13    C5      20.386235   19.301308   24.350241 C.3        1 MOL1         0.1219
      14    H9      21.398287   19.687766   24.171147 H          1 MOL1         0.0790
      15    C6      19.346974   20.331590   23.840081 C.3        1 MOL1        -0.1760
      16    H10     18.357517   20.082139   24.245195 H          1 MOL1         0.0833
      17    H11     19.610318   21.308417   24.266790 H          1 MOL1         0.0833
      18    C7      19.214675   20.489993   22.304485 C.3        1 MOL1        -0.1684
      19    H12     18.630485   21.398642   22.104898 H          1 MOL1         0.0833
      20    H13     18.606828   19.672560   21.899498 H          1 MOL1         0.0833
      21    C8      20.569822   20.596845   21.560499 C.3        1 MOL1        -0.1684
      22    H14     21.400459   20.709637   22.266881 H          1 MOL1         0.0833
      23    H15     20.575995   21.525709   20.973945 H          1 MOL1         0.0833
      24    O1      20.207295   19.183099   25.755844 O.3        1 MOL1        -0.5508
      25    H16     19.308597   18.818342   25.891000 H          1 MOL1         0.3780
@<TRIPOS>BOND
    1     1     2    1
    2     1     3    1
    3     1     4    1
    4     4     5    1
    5     4     6    1
    6     4     7    1
    7     7     8    1
    8     7     9    1
    9     7    10    1
   10    10    11    1
   11    10    12    1
   12    10    13    1
   13    13    14    1
   14    13    15    1
   15    15    16    1
   16    15    17    1
   17    15    18    1
   18    18    19    1
   19    18    20    1
   20     1    21    1
   21    18    21    1
   22    21    22    1
   23    21    23    1
   24    13    24    1
   25    24    25    1
@<TRIPOS>SUBSTRUCTURE
       1 MOL1            1 RESIDUE      1      MOL     
@<SCITEGIC>MOL_PROPERTY
VM2 Rank
SciTegic.value.IntegerValue
72

@<SCITEGIC>MOL_PROPERTY
Conf_Id
SciTegic.value.IntegerValue
275

@<SCITEGIC>MOL_PROPERTY
Probability
SciTegic.value.DoubleValue
0.15

@<SCITEGIC>MOL_PROPERTY
Sum Probability
SciTegic.value.DoubleValue
98.43

@<SCITEGIC>MOL_PROPERTY
Delta G
SciTegic.value.DoubleValue
2.051

@<SCITEGIC>MOL_PROPERTY
G
SciTegic.value.DoubleValue
64.126

@<SCITEGIC>MOL_PROPERTY
E
SciTegic.value.DoubleValue
31.869

@<SCITEGIC>MOL_PROPERTY
-TS
SciTegic.value.DoubleValue
32.257

@<SCITEGIC>MOL_PROPERTY
U+W
SciTegic.value.DoubleValue
11.301

@<SCITEGIC>MOL_PROPERTY
U
SciTegic.value.DoubleValue
13.202

@<SCITEGIC>MOL_PROPERTY
W
SciTegic.value.DoubleValue
-1.901

@<SCITEGIC>MOL_PROPERTY
W(PB)
SciTegic.value.DoubleValue
-4.065

@<SCITEGIC>MOL_PROPERTY
W(SA)
SciTegic.value.DoubleValue
2.163

@<SCITEGIC>MOL_PROPERTY
Valence
SciTegic.value.DoubleValue
18.957

@<SCITEGIC>MOL_PROPERTY
Coulomb
SciTegic.value.DoubleValue
-8.753

@<SCITEGIC>MOL_PROPERTY
VdW
SciTegic.value.DoubleValue
2.998

@<SCITEGIC>MOL_PROPERTY
VdW6
SciTegic.value.DoubleValue
-12.294

@<SCITEGIC>MOL_PROPERTY
VdW12
SciTegic.value.DoubleValue
15.292

@<SCITEGIC>MOL_PROPERTY
Bond
SciTegic.value.DoubleValue
0.419

@<SCITEGIC>MOL_PROPERTY
Angle
SciTegic.value.DoubleValue
4.543

@<SCITEGIC>MOL_PROPERTY
Pdih
SciTegic.value.DoubleValue
13.995

@<SCITEGIC>MOL_PROPERTY
Idih
SciTegic.value.DoubleValue
0.000

@<SCITEGIC>MOL_PROPERTY
Tether
SciTegic.value.DoubleValue
0.000

@<TRIPOS>MOLECULE
guest-s17_vm2.mol2 : vm2 ligand conformer 73
          25          25           1
SMALL
USER_CHARGES
 
@<TRIPOS>ATOM
       1    C1      19.890602   19.003550   20.794480 C.3        1 MOL1        -0.1684
       2    H1      18.939471   18.617703   21.182862 H          1 MOL1         0.0833
       3    H2      19.758797   19.028053   19.704095 H          1 MOL1         0.0833
       4    C2      21.044609   18.009211   21.089401 C.3        1 MOL1        -0.1684
       5    H3      20.706784   17.002815   20.806861 H          1 MOL1         0.0833
       6    H4      21.889248   18.237791   20.425275 H          1 MOL1         0.0833
       7    C3      21.569812   17.964201   22.544822 C.3        1 MOL1        -0.1684
       8    H5      22.242226   18.812254   22.718389 H          1 MOL1         0.0833
       9    H6      22.207140   17.075621   22.649479 H          1 MOL1         0.0833
      10    C4      20.454558   17.906441   23.621704 C.3        1 MOL1        -0.1760
      11    H7      19.472233   17.747997   23.162764 H          1 MOL1         0.0833
      12    H8      20.619734   17.019834   24.247329 H          1 MOL1         0.0833
      13    C5      20.398945   19.135125   24.558460 C.3        1 MOL1         0.1219
      14    H9      21.250484   19.063311   25.250452 H          1 MOL1         0.0790
      15    C6      20.483554   20.526205   23.876680 C.3        1 MOL1        -0.1760
      16    H10     20.272382   21.280188   24.646223 H          1 MOL1         0.0833
      17    H11     21.515673   20.732545   23.569294 H          1 MOL1         0.0833
      18    C7      19.522129   20.776748   22.685289 C.3        1 MOL1        -0.1684
      19    H12     19.277740   21.847743   22.692293 H          1 MOL1         0.0833
      20    H13     18.565734   20.259548   22.841585 H          1 MOL1         0.0833
      21    C8      20.108976   20.457211   21.282355 C.3        1 MOL1        -0.1684
      22    H14     19.596559   21.114177   20.566183 H          1 MOL1         0.0833
      23    H15     21.170137   20.733755   21.222801 H          1 MOL1         0.0833
      24    O1      19.190816   19.064308   25.306809 O.3        1 MOL1        -0.5508
      25    H16     19.176003   19.848486   25.893176 H          1 MOL1         0.3780
@<TRIPOS>BOND
    1     1     2    1
    2     1     3    1
    3     1     4    1
    4     4     5    1
    5     4     6    1
    6     4     7    1
    7     7     8    1
    8     7     9    1
    9     7    10    1
   10    10    11    1
   11    10    12    1
   12    10    13    1
   13    13    14    1
   14    13    15    1
   15    15    16    1
   16    15    17    1
   17    15    18    1
   18    18    19    1
   19    18    20    1
   20     1    21    1
   21    18    21    1
   22    21    22    1
   23    21    23    1
   24    13    24    1
   25    24    25    1
@<TRIPOS>SUBSTRUCTURE
       1 MOL1            1 RESIDUE      1      MOL     
@<SCITEGIC>MOL_PROPERTY
VM2 Rank
SciTegic.value.IntegerValue
73

@<SCITEGIC>MOL_PROPERTY
Conf_Id
SciTegic.value.IntegerValue
1533

@<SCITEGIC>MOL_PROPERTY
Probability
SciTegic.value.DoubleValue
0.13

@<SCITEGIC>MOL_PROPERTY
Sum Probability
SciTegic.value.DoubleValue
98.56

@<SCITEGIC>MOL_PROPERTY
Delta G
SciTegic.value.DoubleValue
2.110

@<SCITEGIC>MOL_PROPERTY
G
SciTegic.value.DoubleValue
64.186

@<SCITEGIC>MOL_PROPERTY
E
SciTegic.value.DoubleValue
31.920

@<SCITEGIC>MOL_PROPERTY
-TS
SciTegic.value.DoubleValue
32.266

@<SCITEGIC>MOL_PROPERTY
U+W
SciTegic.value.DoubleValue
11.353

@<SCITEGIC>MOL_PROPERTY
U
SciTegic.value.DoubleValue
13.643

@<SCITEGIC>MOL_PROPERTY
W
SciTegic.value.DoubleValue
-2.290

@<SCITEGIC>MOL_PROPERTY
W(PB)
SciTegic.value.DoubleValue
-4.412

@<SCITEGIC>MOL_PROPERTY
W(SA)
SciTegic.value.DoubleValue
2.122

@<SCITEGIC>MOL_PROPERTY
Valence
SciTegic.value.DoubleValue
18.610

@<SCITEGIC>MOL_PROPERTY
Coulomb
SciTegic.value.DoubleValue
-7.808

@<SCITEGIC>MOL_PROPERTY
VdW
SciTegic.value.DoubleValue
2.842

@<SCITEGIC>MOL_PROPERTY
VdW6
SciTegic.value.DoubleValue
-12.553

@<SCITEGIC>MOL_PROPERTY
VdW12
SciTegic.value.DoubleValue
15.394

@<SCITEGIC>MOL_PROPERTY
Bond
SciTegic.value.DoubleValue
0.434

@<SCITEGIC>MOL_PROPERTY
Angle
SciTegic.value.DoubleValue
4.744

@<SCITEGIC>MOL_PROPERTY
Pdih
SciTegic.value.DoubleValue
13.432

@<SCITEGIC>MOL_PROPERTY
Idih
SciTegic.value.DoubleValue
0.000

@<SCITEGIC>MOL_PROPERTY
Tether
SciTegic.value.DoubleValue
0.000

@<TRIPOS>MOLECULE
guest-s17_vm2.mol2 : vm2 ligand conformer 74
          25          25           1
SMALL
USER_CHARGES
 
@<TRIPOS>ATOM
       1    C1      20.896645   19.356249   21.001072 C.3        1 MOL1        -0.1684
       2    H1      21.112564   19.263371   19.927966 H          1 MOL1         0.0833
       3    H2      21.869333   19.561521   21.462134 H          1 MOL1         0.0833
       4    C2      20.310258   18.014377   21.505255 C.3        1 MOL1        -0.1684
       5    H3      19.243302   18.114179   21.733327 H          1 MOL1         0.0833
       6    H4      20.347951   17.286962   20.682769 H          1 MOL1         0.0833
       7    C3      21.063029   17.401703   22.712573 C.3        1 MOL1        -0.1684
       8    H5      21.978141   16.923619   22.337240 H          1 MOL1         0.0833
       9    H6      20.456579   16.584242   23.126148 H          1 MOL1         0.0833
      10    C4      21.476897   18.365848   23.862732 C.3        1 MOL1        -0.1760
      11    H7      21.894382   17.744975   24.666123 H          1 MOL1         0.0833
      12    H8      22.313777   18.998813   23.544614 H          1 MOL1         0.0833
      13    C5      20.381158   19.256176   24.498326 C.3        1 MOL1         0.1219
      14    H9      20.732791   19.482125   25.515401 H          1 MOL1         0.0790
      15    C6      20.166986   20.637808   23.818010 C.3        1 MOL1        -0.1760
      16    H10     19.712597   21.284153   24.580306 H          1 MOL1         0.0833
      17    H11     21.136784   21.100463   23.594374 H          1 MOL1         0.0833
      18    C7      19.248399   20.701656   22.566057 C.3        1 MOL1        -0.1684
      19    H12     18.752545   21.681935   22.570842 H          1 MOL1         0.0833
      20    H13     18.424775   19.982648   22.645236 H          1 MOL1         0.0833
      21    C8      19.959236   20.572389   21.193534 C.3        1 MOL1        -0.1684
      22    H14     20.537359   21.487029   21.003813 H          1 MOL1         0.0833
      23    H15     19.185661   20.542956   20.414036 H          1 MOL1         0.0833
      24    O1      19.161391   18.536795   24.602441 O.3        1 MOL1        -0.5508
      25    H16     18.976493   18.235450   23.691105 H          1 MOL1         0.3780
@<TRIPOS>BOND
    1     1     2    1
    2     1     3    1
    3     1     4    1
    4     4     5    1
    5     4     6    1
    6     4     7    1
    7     7     8    1
    8     7     9    1
    9     7    10    1
   10    10    11    1
   11    10    12    1
   12    10    13    1
   13    13    14    1
   14    13    15    1
   15    15    16    1
   16    15    17    1
   17    15    18    1
   18    18    19    1
   19    18    20    1
   20     1    21    1
   21    18    21    1
   22    21    22    1
   23    21    23    1
   24    13    24    1
   25    24    25    1
@<TRIPOS>SUBSTRUCTURE
       1 MOL1            1 RESIDUE      1      MOL     
@<SCITEGIC>MOL_PROPERTY
VM2 Rank
SciTegic.value.IntegerValue
74

@<SCITEGIC>MOL_PROPERTY
Conf_Id
SciTegic.value.IntegerValue
1649

@<SCITEGIC>MOL_PROPERTY
Probability
SciTegic.value.DoubleValue
0.13

@<SCITEGIC>MOL_PROPERTY
Sum Probability
SciTegic.value.DoubleValue
98.70

@<SCITEGIC>MOL_PROPERTY
Delta G
SciTegic.value.DoubleValue
2.118

@<SCITEGIC>MOL_PROPERTY
G
SciTegic.value.DoubleValue
64.193

@<SCITEGIC>MOL_PROPERTY
E
SciTegic.value.DoubleValue
31.541

@<SCITEGIC>MOL_PROPERTY
-TS
SciTegic.value.DoubleValue
32.652

@<SCITEGIC>MOL_PROPERTY
U+W
SciTegic.value.DoubleValue
10.974

@<SCITEGIC>MOL_PROPERTY
U
SciTegic.value.DoubleValue
12.265

@<SCITEGIC>MOL_PROPERTY
W
SciTegic.value.DoubleValue
-1.291

@<SCITEGIC>MOL_PROPERTY
W(PB)
SciTegic.value.DoubleValue
-3.431

@<SCITEGIC>MOL_PROPERTY
W(SA)
SciTegic.value.DoubleValue
2.140

@<SCITEGIC>MOL_PROPERTY
Valence
SciTegic.value.DoubleValue
19.257

@<SCITEGIC>MOL_PROPERTY
Coulomb
SciTegic.value.DoubleValue
-9.838

@<SCITEGIC>MOL_PROPERTY
VdW
SciTegic.value.DoubleValue
2.846

@<SCITEGIC>MOL_PROPERTY
VdW6
SciTegic.value.DoubleValue
-13.716

@<SCITEGIC>MOL_PROPERTY
VdW12
SciTegic.value.DoubleValue
16.562

@<SCITEGIC>MOL_PROPERTY
Bond
SciTegic.value.DoubleValue
0.508

@<SCITEGIC>MOL_PROPERTY
Angle
SciTegic.value.DoubleValue
6.448

@<SCITEGIC>MOL_PROPERTY
Pdih
SciTegic.value.DoubleValue
12.301

@<SCITEGIC>MOL_PROPERTY
Idih
SciTegic.value.DoubleValue
0.000

@<SCITEGIC>MOL_PROPERTY
Tether
SciTegic.value.DoubleValue
0.000

@<TRIPOS>MOLECULE
guest-s17_vm2.mol2 : vm2 ligand conformer 75
          25          25           1
SMALL
USER_CHARGES
 
@<TRIPOS>ATOM
       1    C1      20.947107   19.395729   20.769045 C.3        1 MOL1        -0.1684
       2    H1      21.046818   19.429953   19.675496 H          1 MOL1         0.0833
       3    H2      21.869392   19.853522   21.148512 H          1 MOL1         0.0833
       4    C2      20.874146   17.898906   21.170751 C.3        1 MOL1        -0.1684
       5    H3      20.148882   17.391280   20.520367 H          1 MOL1         0.0833
       6    H4      21.846793   17.438701   20.949615 H          1 MOL1         0.0833
       7    C3      20.503765   17.591767   22.641915 C.3        1 MOL1        -0.1684
       8    H5      20.706618   16.529242   22.832177 H          1 MOL1         0.0833
       9    H6      19.421338   17.697061   22.779581 H          1 MOL1         0.0833
      10    C4      21.280034   18.439830   23.684103 C.3        1 MOL1        -0.1760
      11    H7      21.802684   17.760607   24.370461 H          1 MOL1         0.0833
      12    H8      22.079007   19.015086   23.204367 H          1 MOL1         0.0833
      13    C5      20.405137   19.395514   24.529919 C.3        1 MOL1         0.1219
      14    H9      21.085208   20.099152   25.031400 H          1 MOL1         0.0790
      15    C6      19.345971   20.224211   23.759311 C.3        1 MOL1        -0.1760
      16    H10     18.492099   19.595740   23.477383 H          1 MOL1         0.0833
      17    H11     18.938570   20.956406   24.468620 H          1 MOL1         0.0833
      18    C7      19.856026   21.007025   22.521825 C.3        1 MOL1        -0.1684
      19    H12     20.882744   21.363128   22.680910 H          1 MOL1         0.0833
      20    H13     19.242487   21.915225   22.444690 H          1 MOL1         0.0833
      21    C8      19.725156   20.261121   21.165005 C.3        1 MOL1        -0.1684
      22    H14     18.799702   19.671122   21.124010 H          1 MOL1         0.0833
      23    H15     19.614215   21.030283   20.388326 H          1 MOL1         0.0833
      24    O1      19.726658   18.628895   25.518126 O.3        1 MOL1        -0.5508
      25    H16     19.222476   19.261903   26.070048 H          1 MOL1         0.3780
@<TRIPOS>BOND
    1     1     2    1
    2     1     3    1
    3     1     4    1
    4     4     5    1
    5     4     6    1
    6     4     7    1
    7     7     8    1
    8     7     9    1
    9     7    10    1
   10    10    11    1
   11    10    12    1
   12    10    13    1
   13    13    14    1
   14    13    15    1
   15    15    16    1
   16    15    17    1
   17    15    18    1
   18    18    19    1
   19    18    20    1
   20     1    21    1
   21    18    21    1
   22    21    22    1
   23    21    23    1
   24    13    24    1
   25    24    25    1
@<TRIPOS>SUBSTRUCTURE
       1 MOL1            1 RESIDUE      1      MOL     
@<SCITEGIC>MOL_PROPERTY
VM2 Rank
SciTegic.value.IntegerValue
75

@<SCITEGIC>MOL_PROPERTY
Conf_Id
SciTegic.value.IntegerValue
967

@<SCITEGIC>MOL_PROPERTY
Probability
SciTegic.value.DoubleValue
0.13

@<SCITEGIC>MOL_PROPERTY
Sum Probability
SciTegic.value.DoubleValue
98.82

@<SCITEGIC>MOL_PROPERTY
Delta G
SciTegic.value.DoubleValue
2.130

@<SCITEGIC>MOL_PROPERTY
G
SciTegic.value.DoubleValue
64.205

@<SCITEGIC>MOL_PROPERTY
E
SciTegic.value.DoubleValue
31.906

@<SCITEGIC>MOL_PROPERTY
-TS
SciTegic.value.DoubleValue
32.299

@<SCITEGIC>MOL_PROPERTY
U+W
SciTegic.value.DoubleValue
11.339

@<SCITEGIC>MOL_PROPERTY
U
SciTegic.value.DoubleValue
13.665

@<SCITEGIC>MOL_PROPERTY
W
SciTegic.value.DoubleValue
-2.326

@<SCITEGIC>MOL_PROPERTY
W(PB)
SciTegic.value.DoubleValue
-4.462

@<SCITEGIC>MOL_PROPERTY
W(SA)
SciTegic.value.DoubleValue
2.136

@<SCITEGIC>MOL_PROPERTY
Valence
SciTegic.value.DoubleValue
18.607

@<SCITEGIC>MOL_PROPERTY
Coulomb
SciTegic.value.DoubleValue
-7.778

@<SCITEGIC>MOL_PROPERTY
VdW
SciTegic.value.DoubleValue
2.836

@<SCITEGIC>MOL_PROPERTY
VdW6
SciTegic.value.DoubleValue
-12.472

@<SCITEGIC>MOL_PROPERTY
VdW12
SciTegic.value.DoubleValue
15.308

@<SCITEGIC>MOL_PROPERTY
Bond
SciTegic.value.DoubleValue
0.426

@<SCITEGIC>MOL_PROPERTY
Angle
SciTegic.value.DoubleValue
4.743

@<SCITEGIC>MOL_PROPERTY
Pdih
SciTegic.value.DoubleValue
13.438

@<SCITEGIC>MOL_PROPERTY
Idih
SciTegic.value.DoubleValue
0.000

@<SCITEGIC>MOL_PROPERTY
Tether
SciTegic.value.DoubleValue
0.000

@<TRIPOS>MOLECULE
guest-s17_vm2.mol2 : vm2 ligand conformer 76
          25          25           1
SMALL
USER_CHARGES
 
@<TRIPOS>ATOM
       1    C1      20.244780   19.192661   20.606594 C.3        1 MOL1        -0.1684
       2    H1      19.296253   18.651019   20.490279 H          1 MOL1         0.0833
       3    H2      20.632283   19.333171   19.588300 H          1 MOL1         0.0833
       4    C2      21.257319   18.325012   21.389813 C.3        1 MOL1        -0.1684
       5    H3      21.666396   17.582819   20.690659 H          1 MOL1         0.0833
       6    H4      22.115641   18.933769   21.703200 H          1 MOL1         0.0833
       7    C3      20.641899   17.551319   22.586119 C.3        1 MOL1        -0.1684
       8    H5      20.906789   16.492016   22.466518 H          1 MOL1         0.0833
       9    H6      19.544459   17.579004   22.563223 H          1 MOL1         0.0833
      10    C4      21.162121   18.006234   23.972924 C.3        1 MOL1        -0.1760
      11    H7      21.062725   17.162295   24.668174 H          1 MOL1         0.0833
      12    H8      22.238797   18.211089   23.916599 H          1 MOL1         0.0833
      13    C5      20.442810   19.214984   24.616854 C.3        1 MOL1         0.1219
      14    H9      21.002210   19.446365   25.534874 H          1 MOL1         0.0790
      15    C6      20.434766   20.510606   23.767998 C.3        1 MOL1        -0.1760
      16    H10     20.251125   21.345474   24.456736 H          1 MOL1         0.0833
      17    H11     21.443675   20.687811   23.374813 H          1 MOL1         0.0833
      18    C7      19.379043   20.598906   22.626988 C.3        1 MOL1        -0.1684
      19    H12     18.837896   21.546548   22.752666 H          1 MOL1         0.0833
      20    H13     18.613925   19.816625   22.710372 H          1 MOL1         0.0833
      21    C8      19.982494   20.595858   21.202629 C.3        1 MOL1        -0.1684
      22    H14     19.278949   21.110884   20.534314 H          1 MOL1         0.0833
      23    H15     20.903480   21.193836   21.178683 H          1 MOL1         0.0833
      24    O1      19.118768   18.847420   24.990081 O.3        1 MOL1        -0.5508
      25    H16     18.685167   19.664205   25.311052 H          1 MOL1         0.3780
@<TRIPOS>BOND
    1     1     2    1
    2     1     3    1
    3     1     4    1
    4     4     5    1
    5     4     6    1
    6     4     7    1
    7     7     8    1
    8     7     9    1
    9     7    10    1
   10    10    11    1
   11    10    12    1
   12    10    13    1
   13    13    14    1
   14    13    15    1
   15    15    16    1
   16    15    17    1
   17    15    18    1
   18    18    19    1
   19    18    20    1
   20     1    21    1
   21    18    21    1
   22    21    22    1
   23    21    23    1
   24    13    24    1
   25    24    25    1
@<TRIPOS>SUBSTRUCTURE
       1 MOL1            1 RESIDUE      1      MOL     
@<SCITEGIC>MOL_PROPERTY
VM2 Rank
SciTegic.value.IntegerValue
76

@<SCITEGIC>MOL_PROPERTY
Conf_Id
SciTegic.value.IntegerValue
623

@<SCITEGIC>MOL_PROPERTY
Probability
SciTegic.value.DoubleValue
0.13

@<SCITEGIC>MOL_PROPERTY
Sum Probability
SciTegic.value.DoubleValue
98.95

@<SCITEGIC>MOL_PROPERTY
Delta G
SciTegic.value.DoubleValue
2.140

@<SCITEGIC>MOL_PROPERTY
G
SciTegic.value.DoubleValue
64.216

@<SCITEGIC>MOL_PROPERTY
E
SciTegic.value.DoubleValue
32.113

@<SCITEGIC>MOL_PROPERTY
-TS
SciTegic.value.DoubleValue
32.103

@<SCITEGIC>MOL_PROPERTY
U+W
SciTegic.value.DoubleValue
11.545

@<SCITEGIC>MOL_PROPERTY
U
SciTegic.value.DoubleValue
13.660

@<SCITEGIC>MOL_PROPERTY
W
SciTegic.value.DoubleValue
-2.115

@<SCITEGIC>MOL_PROPERTY
W(PB)
SciTegic.value.DoubleValue
-4.226

@<SCITEGIC>MOL_PROPERTY
W(SA)
SciTegic.value.DoubleValue
2.111

@<SCITEGIC>MOL_PROPERTY
Valence
SciTegic.value.DoubleValue
18.998

@<SCITEGIC>MOL_PROPERTY
Coulomb
SciTegic.value.DoubleValue
-7.829

@<SCITEGIC>MOL_PROPERTY
VdW
SciTegic.value.DoubleValue
2.491

@<SCITEGIC>MOL_PROPERTY
VdW6
SciTegic.value.DoubleValue
-12.613

@<SCITEGIC>MOL_PROPERTY
VdW12
SciTegic.value.DoubleValue
15.104

@<SCITEGIC>MOL_PROPERTY
Bond
SciTegic.value.DoubleValue
0.387

@<SCITEGIC>MOL_PROPERTY
Angle
SciTegic.value.DoubleValue
4.271

@<SCITEGIC>MOL_PROPERTY
Pdih
SciTegic.value.DoubleValue
14.339

@<SCITEGIC>MOL_PROPERTY
Idih
SciTegic.value.DoubleValue
0.000

@<SCITEGIC>MOL_PROPERTY
Tether
SciTegic.value.DoubleValue
0.000

@<TRIPOS>MOLECULE
guest-s17_vm2.mol2 : vm2 ligand conformer 77
          25          25           1
SMALL
USER_CHARGES
 
@<TRIPOS>ATOM
       1    C1      20.801181   19.515847   20.992549 C.3        1 MOL1        -0.1684
       2    H1      20.871478   19.720600   19.915543 H          1 MOL1         0.0833
       3    H2      21.612024   20.102356   21.439066 H          1 MOL1         0.0833
       4    C2      21.067247   18.006626   21.207564 C.3        1 MOL1        -0.1684
       5    H3      20.518510   17.443243   20.440498 H          1 MOL1         0.0833
       6    H4      22.131123   17.812877   21.014128 H          1 MOL1         0.0833
       7    C3      20.691703   17.416976   22.592156 C.3        1 MOL1        -0.1684
       8    H5      21.080453   16.389669   22.610932 H          1 MOL1         0.0833
       9    H6      19.605810   17.295850   22.680250 H          1 MOL1         0.0833
      10    C4      21.272544   18.157850   23.828683 C.3        1 MOL1        -0.1760
      11    H7      21.447759   17.398649   24.602143 H          1 MOL1         0.0833
      12    H8      22.266979   18.557540   23.592208 H          1 MOL1         0.0833
      13    C5      20.401910   19.259173   24.497027 C.3        1 MOL1         0.1219
      14    H9      20.812497   19.382455   25.509628 H          1 MOL1         0.0790
      15    C6      20.480267   20.658217   23.838362 C.3        1 MOL1        -0.1760
      16    H10     20.309016   21.398127   24.631092 H          1 MOL1         0.0833
      17    H11     21.510068   20.843387   23.510593 H          1 MOL1         0.0833
      18    C7      19.482094   20.985055   22.689206 C.3        1 MOL1        -0.1684
      19    H12     19.744415   21.976837   22.296238 H          1 MOL1         0.0833
      20    H13     18.472257   21.095884   23.107553 H          1 MOL1         0.0833
      21    C8      19.418479   19.996868   21.497948 C.3        1 MOL1        -0.1684
      22    H14     18.773542   19.145997   21.743806 H          1 MOL1         0.0833
      23    H15     18.901882   20.502403   20.670543 H          1 MOL1         0.0833
      24    O1      19.048575   18.846387   24.616506 O.3        1 MOL1        -0.5508
      25    H16     18.695578   18.898621   23.706457 H          1 MOL1         0.3780
@<TRIPOS>BOND
    1     1     2    1
    2     1     3    1
    3     1     4    1
    4     4     5    1
    5     4     6    1
    6     4     7    1
    7     7     8    1
    8     7     9    1
    9     7    10    1
   10    10    11    1
   11    10    12    1
   12    10    13    1
   13    13    14    1
   14    13    15    1
   15    15    16    1
   16    15    17    1
   17    15    18    1
   18    18    19    1
   19    18    20    1
   20     1    21    1
   21    18    21    1
   22    21    22    1
   23    21    23    1
   24    13    24    1
   25    24    25    1
@<TRIPOS>SUBSTRUCTURE
       1 MOL1            1 RESIDUE      1      MOL     
@<SCITEGIC>MOL_PROPERTY
VM2 Rank
SciTegic.value.IntegerValue
77

@<SCITEGIC>MOL_PROPERTY
Conf_Id
SciTegic.value.IntegerValue
1910

@<SCITEGIC>MOL_PROPERTY
Probability
SciTegic.value.DoubleValue
0.13

@<SCITEGIC>MOL_PROPERTY
Sum Probability
SciTegic.value.DoubleValue
99.08

@<SCITEGIC>MOL_PROPERTY
Delta G
SciTegic.value.DoubleValue
2.142

@<SCITEGIC>MOL_PROPERTY
G
SciTegic.value.DoubleValue
64.217

@<SCITEGIC>MOL_PROPERTY
E
SciTegic.value.DoubleValue
31.565

@<SCITEGIC>MOL_PROPERTY
-TS
SciTegic.value.DoubleValue
32.652

@<SCITEGIC>MOL_PROPERTY
U+W
SciTegic.value.DoubleValue
10.998

@<SCITEGIC>MOL_PROPERTY
U
SciTegic.value.DoubleValue
12.265

@<SCITEGIC>MOL_PROPERTY
W
SciTegic.value.DoubleValue
-1.267

@<SCITEGIC>MOL_PROPERTY
W(PB)
SciTegic.value.DoubleValue
-3.395

@<SCITEGIC>MOL_PROPERTY
W(SA)
SciTegic.value.DoubleValue
2.128

@<SCITEGIC>MOL_PROPERTY
Valence
SciTegic.value.DoubleValue
19.257

@<SCITEGIC>MOL_PROPERTY
Coulomb
SciTegic.value.DoubleValue
-9.838

@<SCITEGIC>MOL_PROPERTY
VdW
SciTegic.value.DoubleValue
2.846

@<SCITEGIC>MOL_PROPERTY
VdW6
SciTegic.value.DoubleValue
-13.716

@<SCITEGIC>MOL_PROPERTY
VdW12
SciTegic.value.DoubleValue
16.562

@<SCITEGIC>MOL_PROPERTY
Bond
SciTegic.value.DoubleValue
0.508

@<SCITEGIC>MOL_PROPERTY
Angle
SciTegic.value.DoubleValue
6.448

@<SCITEGIC>MOL_PROPERTY
Pdih
SciTegic.value.DoubleValue
12.301

@<SCITEGIC>MOL_PROPERTY
Idih
SciTegic.value.DoubleValue
0.000

@<SCITEGIC>MOL_PROPERTY
Tether
SciTegic.value.DoubleValue
0.000

@<TRIPOS>MOLECULE
guest-s17_vm2.mol2 : vm2 ligand conformer 78
          25          25           1
SMALL
USER_CHARGES
 
@<TRIPOS>ATOM
       1    C1      19.850878   19.051689   20.798534 C.3        1 MOL1        -0.1684
       2    H1      18.908125   18.654704   21.196015 H          1 MOL1         0.0833
       3    H2      19.766421   18.936408   19.709273 H          1 MOL1         0.0833
       4    C2      21.036040   18.179125   21.281091 C.3        1 MOL1        -0.1684
       5    H3      21.131824   17.348965   20.567832 H          1 MOL1         0.0833
       6    H4      21.982020   18.732654   21.211714 H          1 MOL1         0.0833
       7    C3      20.857289   17.544653   22.688292 C.3        1 MOL1        -0.1684
       8    H5      21.440910   16.613983   22.694897 H          1 MOL1         0.0833
       9    H6      19.816241   17.235851   22.854048 H          1 MOL1         0.0833
      10    C4      21.370038   18.406412   23.871924 C.3        1 MOL1        -0.1760
      11    H7      21.759142   17.726975   24.641497 H          1 MOL1         0.0833
      12    H8      22.243935   18.988045   23.555157 H          1 MOL1         0.0833
      13    C5      20.332814   19.334327   24.557659 C.3        1 MOL1         0.1219
      14    H9      20.890177   19.989743   25.242424 H          1 MOL1         0.0790
      15    C6      19.496986   20.239138   23.623331 C.3        1 MOL1        -0.1760
      16    H10     18.686247   19.655348   23.173240 H          1 MOL1         0.0833
      17    H11     18.992441   20.986142   24.249576 H          1 MOL1         0.0833
      18    C7      20.318812   20.981277   22.536761 C.3        1 MOL1        -0.1684
      19    H12     21.395132   20.856762   22.702569 H          1 MOL1         0.0833
      20    H13     20.143020   22.060891   22.637998 H          1 MOL1         0.0833
      21    C8      19.967638   20.571973   21.085809 C.3        1 MOL1        -0.1684
      22    H14     19.015477   21.044490   20.808496 H          1 MOL1         0.0833
      23    H15     20.721835   21.003816   20.413925 H          1 MOL1         0.0833
      24    O1      19.433504   18.534406   25.316598 O.3        1 MOL1        -0.5508
      25    H16     19.981499   17.971592   25.901336 H          1 MOL1         0.3780
@<TRIPOS>BOND
    1     1     2    1
    2     1     3    1
    3     1     4    1
    4     4     5    1
    5     4     6    1
    6     4     7    1
    7     7     8    1
    8     7     9    1
    9     7    10    1
   10    10    11    1
   11    10    12    1
   12    10    13    1
   13    13    14    1
   14    13    15    1
   15    15    16    1
   16    15    17    1
   17    15    18    1
   18    18    19    1
   19    18    20    1
   20     1    21    1
   21    18    21    1
   22    21    22    1
   23    21    23    1
   24    13    24    1
   25    24    25    1
@<TRIPOS>SUBSTRUCTURE
       1 MOL1            1 RESIDUE      1      MOL     
@<SCITEGIC>MOL_PROPERTY
VM2 Rank
SciTegic.value.IntegerValue
78

@<SCITEGIC>MOL_PROPERTY
Conf_Id
SciTegic.value.IntegerValue
652

@<SCITEGIC>MOL_PROPERTY
Probability
SciTegic.value.DoubleValue
0.12

@<SCITEGIC>MOL_PROPERTY
Sum Probability
SciTegic.value.DoubleValue
99.20

@<SCITEGIC>MOL_PROPERTY
Delta G
SciTegic.value.DoubleValue
2.158

@<SCITEGIC>MOL_PROPERTY
G
SciTegic.value.DoubleValue
64.233

@<SCITEGIC>MOL_PROPERTY
E
SciTegic.value.DoubleValue
31.970

@<SCITEGIC>MOL_PROPERTY
-TS
SciTegic.value.DoubleValue
32.264

@<SCITEGIC>MOL_PROPERTY
U+W
SciTegic.value.DoubleValue
11.402

@<SCITEGIC>MOL_PROPERTY
U
SciTegic.value.DoubleValue
13.643

@<SCITEGIC>MOL_PROPERTY
W
SciTegic.value.DoubleValue
-2.241

@<SCITEGIC>MOL_PROPERTY
W(PB)
SciTegic.value.DoubleValue
-4.379

@<SCITEGIC>MOL_PROPERTY
W(SA)
SciTegic.value.DoubleValue
2.138

@<SCITEGIC>MOL_PROPERTY
Valence
SciTegic.value.DoubleValue
18.609

@<SCITEGIC>MOL_PROPERTY
Coulomb
SciTegic.value.DoubleValue
-7.808

@<SCITEGIC>MOL_PROPERTY
VdW
SciTegic.value.DoubleValue
2.842

@<SCITEGIC>MOL_PROPERTY
VdW6
SciTegic.value.DoubleValue
-12.553

@<SCITEGIC>MOL_PROPERTY
VdW12
SciTegic.value.DoubleValue
15.394

@<SCITEGIC>MOL_PROPERTY
Bond
SciTegic.value.DoubleValue
0.434

@<SCITEGIC>MOL_PROPERTY
Angle
SciTegic.value.DoubleValue
4.744

@<SCITEGIC>MOL_PROPERTY
Pdih
SciTegic.value.DoubleValue
13.431

@<SCITEGIC>MOL_PROPERTY
Idih
SciTegic.value.DoubleValue
0.000

@<SCITEGIC>MOL_PROPERTY
Tether
SciTegic.value.DoubleValue
0.000

@<TRIPOS>MOLECULE
guest-s17_vm2.mol2 : vm2 ligand conformer 79
          25          25           1
SMALL
USER_CHARGES
 
@<TRIPOS>ATOM
       1    C1      20.924821   19.541283   20.780629 C.3        1 MOL1        -0.1684
       2    H1      21.037106   19.593358   19.689005 H          1 MOL1         0.0833
       3    H2      21.894314   19.868042   21.177478 H          1 MOL1         0.0833
       4    C2      20.666947   18.063170   21.164730 C.3        1 MOL1        -0.1684
       5    H3      19.596253   17.825851   21.105257 H          1 MOL1         0.0833
       6    H4      21.145059   17.445080   20.392382 H          1 MOL1         0.0833
       7    C3      21.265187   17.621337   22.529043 C.3        1 MOL1        -0.1684
       8    H5      22.240157   18.094924   22.706288 H          1 MOL1         0.0833
       9    H6      21.475098   16.545772   22.449642 H          1 MOL1         0.0833
      10    C4      20.331180   17.807522   23.752680 C.3        1 MOL1        -0.1760
      11    H7      19.287716   17.649343   23.453145 H          1 MOL1         0.0833
      12    H8      20.549703   16.998077   24.461376 H          1 MOL1         0.0833
      13    C5      20.481316   19.138445   24.532751 C.3        1 MOL1         0.1219
      14    H9      21.451639   19.119460   25.049666 H          1 MOL1         0.0790
      15    C6      20.437170   20.437263   23.692923 C.3        1 MOL1        -0.1760
      16    H10     20.315057   21.283455   24.381864 H          1 MOL1         0.0833
      17    H11     21.416401   20.598348   23.229692 H          1 MOL1         0.0833
      18    C7      19.305455   20.493085   22.632702 C.3        1 MOL1        -0.1684
      19    H12     18.694231   21.386641   22.817828 H          1 MOL1         0.0833
      20    H13     18.612739   19.652309   22.754876 H          1 MOL1         0.0833
      21    C8      19.808082   20.545625   21.169676 C.3        1 MOL1        -0.1684
      22    H14     18.946926   20.394828   20.504574 H          1 MOL1         0.0833
      23    H15     20.173511   21.560066   20.959661 H          1 MOL1         0.0833
      24    O1      19.443841   19.195269   25.504866 O.3        1 MOL1        -0.5508
      25    H16     19.526540   18.388373   26.054042 H          1 MOL1         0.3780
@<TRIPOS>BOND
    1     1     2    1
    2     1     3    1
    3     1     4    1
    4     4     5    1
    5     4     6    1
    6     4     7    1
    7     7     8    1
    8     7     9    1
    9     7    10    1
   10    10    11    1
   11    10    12    1
   12    10    13    1
   13    13    14    1
   14    13    15    1
   15    15    16    1
   16    15    17    1
   17    15    18    1
   18    18    19    1
   19    18    20    1
   20     1    21    1
   21    18    21    1
   22    21    22    1
   23    21    23    1
   24    13    24    1
   25    24    25    1
@<TRIPOS>SUBSTRUCTURE
       1 MOL1            1 RESIDUE      1      MOL     
@<SCITEGIC>MOL_PROPERTY
VM2 Rank
SciTegic.value.IntegerValue
79

@<SCITEGIC>MOL_PROPERTY
Conf_Id
SciTegic.value.IntegerValue
896

@<SCITEGIC>MOL_PROPERTY
Probability
SciTegic.value.DoubleValue
0.12

@<SCITEGIC>MOL_PROPERTY
Sum Probability
SciTegic.value.DoubleValue
99.32

@<SCITEGIC>MOL_PROPERTY
Delta G
SciTegic.value.DoubleValue
2.169

@<SCITEGIC>MOL_PROPERTY
G
SciTegic.value.DoubleValue
64.244

@<SCITEGIC>MOL_PROPERTY
E
SciTegic.value.DoubleValue
31.946

@<SCITEGIC>MOL_PROPERTY
-TS
SciTegic.value.DoubleValue
32.299

@<SCITEGIC>MOL_PROPERTY
U+W
SciTegic.value.DoubleValue
11.378

@<SCITEGIC>MOL_PROPERTY
U
SciTegic.value.DoubleValue
13.665

@<SCITEGIC>MOL_PROPERTY
W
SciTegic.value.DoubleValue
-2.287

@<SCITEGIC>MOL_PROPERTY
W(PB)
SciTegic.value.DoubleValue
-4.435

@<SCITEGIC>MOL_PROPERTY
W(SA)
SciTegic.value.DoubleValue
2.148

@<SCITEGIC>MOL_PROPERTY
Valence
SciTegic.value.DoubleValue
18.607

@<SCITEGIC>MOL_PROPERTY
Coulomb
SciTegic.value.DoubleValue
-7.778

@<SCITEGIC>MOL_PROPERTY
VdW
SciTegic.value.DoubleValue
2.836

@<SCITEGIC>MOL_PROPERTY
VdW6
SciTegic.value.DoubleValue
-12.472

@<SCITEGIC>MOL_PROPERTY
VdW12
SciTegic.value.DoubleValue
15.308

@<SCITEGIC>MOL_PROPERTY
Bond
SciTegic.value.DoubleValue
0.426

@<SCITEGIC>MOL_PROPERTY
Angle
SciTegic.value.DoubleValue
4.743

@<SCITEGIC>MOL_PROPERTY
Pdih
SciTegic.value.DoubleValue
13.438

@<SCITEGIC>MOL_PROPERTY
Idih
SciTegic.value.DoubleValue
0.000

@<SCITEGIC>MOL_PROPERTY
Tether
SciTegic.value.DoubleValue
0.000

@<TRIPOS>MOLECULE
guest-s17_vm2.mol2 : vm2 ligand conformer 80
          25          25           1
SMALL
USER_CHARGES
 
@<TRIPOS>ATOM
       1    C1      20.239504   19.146870   20.607432 C.3        1 MOL1        -0.1684
       2    H1      19.198769   18.811887   20.501302 H          1 MOL1         0.0833
       3    H2      20.598995   19.324865   19.584735 H          1 MOL1         0.0833
       4    C2      21.100506   18.013214   21.212837 C.3        1 MOL1        -0.1684
       5    H3      21.001301   17.138227   20.556005 H          1 MOL1         0.0833
       6    H4      22.163373   18.288093   21.179372 H          1 MOL1         0.0833
       7    C3      20.703301   17.584083   22.644980 C.3        1 MOL1        -0.1684
       8    H5      21.037264   16.546574   22.781755 H          1 MOL1         0.0833
       9    H6      19.610140   17.549431   22.735077 H          1 MOL1         0.0833
      10    C4      21.357831   18.436383   23.771665 C.3        1 MOL1        -0.1760
      11    H7      21.853300   17.745681   24.466309 H          1 MOL1         0.0833
      12    H8      22.167753   19.055573   23.366051 H          1 MOL1         0.0833
      13    C5      20.412778   19.328150   24.614802 C.3        1 MOL1         0.1219
      14    H9      20.966515   19.595835   25.526364 H          1 MOL1         0.0790
      15    C6      20.003650   20.666863   23.956324 C.3        1 MOL1        -0.1760
      16    H10     19.318236   21.172390   24.649243 H          1 MOL1         0.0833
      17    H11     20.881641   21.321576   23.886691 H          1 MOL1         0.0833
      18    C7      19.308803   20.573179   22.574579 C.3        1 MOL1        -0.1684
      19    H12     18.705918   21.482497   22.447044 H          1 MOL1         0.0833
      20    H13     18.587818   19.745063   22.566232 H          1 MOL1         0.0833
      21    C8      20.288079   20.489324   21.373548 C.3        1 MOL1        -0.1684
      22    H14     20.013009   21.283434   20.665920 H          1 MOL1         0.0833
      23    H15     21.318518   20.714979   21.678164 H          1 MOL1         0.0833
      24    O1      19.249549   18.604935   25.003834 O.3        1 MOL1        -0.5508
      25    H16     19.560784   17.737575   25.333969 H          1 MOL1         0.3780
@<TRIPOS>BOND
    1     1     2    1
    2     1     3    1
    3     1     4    1
    4     4     5    1
    5     4     6    1
    6     4     7    1
    7     7     8    1
    8     7     9    1
    9     7    10    1
   10    10    11    1
   11    10    12    1
   12    10    13    1
   13    13    14    1
   14    13    15    1
   15    15    16    1
   16    15    17    1
   17    15    18    1
   18    18    19    1
   19    18    20    1
   20     1    21    1
   21    18    21    1
   22    21    22    1
   23    21    23    1
   24    13    24    1
   25    24    25    1
@<TRIPOS>SUBSTRUCTURE
       1 MOL1            1 RESIDUE      1      MOL     
@<SCITEGIC>MOL_PROPERTY
VM2 Rank
SciTegic.value.IntegerValue
80

@<SCITEGIC>MOL_PROPERTY
Conf_Id
SciTegic.value.IntegerValue
704

@<SCITEGIC>MOL_PROPERTY
Probability
SciTegic.value.DoubleValue
0.12

@<SCITEGIC>MOL_PROPERTY
Sum Probability
SciTegic.value.DoubleValue
99.44

@<SCITEGIC>MOL_PROPERTY
Delta G
SciTegic.value.DoubleValue
2.178

@<SCITEGIC>MOL_PROPERTY
G
SciTegic.value.DoubleValue
64.253

@<SCITEGIC>MOL_PROPERTY
E
SciTegic.value.DoubleValue
32.151

@<SCITEGIC>MOL_PROPERTY
-TS
SciTegic.value.DoubleValue
32.102

@<SCITEGIC>MOL_PROPERTY
U+W
SciTegic.value.DoubleValue
11.583

@<SCITEGIC>MOL_PROPERTY
U
SciTegic.value.DoubleValue
13.660

@<SCITEGIC>MOL_PROPERTY
W
SciTegic.value.DoubleValue
-2.077

@<SCITEGIC>MOL_PROPERTY
W(PB)
SciTegic.value.DoubleValue
-4.202

@<SCITEGIC>MOL_PROPERTY
W(SA)
SciTegic.value.DoubleValue
2.125

@<SCITEGIC>MOL_PROPERTY
Valence
SciTegic.value.DoubleValue
18.998

@<SCITEGIC>MOL_PROPERTY
Coulomb
SciTegic.value.DoubleValue
-7.829

@<SCITEGIC>MOL_PROPERTY
VdW
SciTegic.value.DoubleValue
2.491

@<SCITEGIC>MOL_PROPERTY
VdW6
SciTegic.value.DoubleValue
-12.613

@<SCITEGIC>MOL_PROPERTY
VdW12
SciTegic.value.DoubleValue
15.104

@<SCITEGIC>MOL_PROPERTY
Bond
SciTegic.value.DoubleValue
0.387

@<SCITEGIC>MOL_PROPERTY
Angle
SciTegic.value.DoubleValue
4.272

@<SCITEGIC>MOL_PROPERTY
Pdih
SciTegic.value.DoubleValue
14.339

@<SCITEGIC>MOL_PROPERTY
Idih
SciTegic.value.DoubleValue
0.000

@<SCITEGIC>MOL_PROPERTY
Tether
SciTegic.value.DoubleValue
0.000

@<TRIPOS>MOLECULE
guest-s17_vm2.mol2 : vm2 ligand conformer 81
          25          25           1
SMALL
USER_CHARGES
 
@<TRIPOS>ATOM
       1    C1      19.896179   19.004870   20.786589 C.3        1 MOL1        -0.1684
       2    H1      18.941195   18.619908   21.166322 H          1 MOL1         0.0833
       3    H2      19.773039   19.033024   19.695276 H          1 MOL1         0.0833
       4    C2      21.045540   18.007199   21.088065 C.3        1 MOL1        -0.1684
       5    H3      20.705420   17.000607   20.808999 H          1 MOL1         0.0833
       6    H4      21.892638   18.230570   20.425284 H          1 MOL1         0.0833
       7    C3      21.566863   17.968613   22.544813 C.3        1 MOL1        -0.1684
       8    H5      22.233575   18.821586   22.717087 H          1 MOL1         0.0833
       9    H6      22.209185   17.084180   22.654219 H          1 MOL1         0.0833
      10    C4      20.448478   17.908986   23.618144 C.3        1 MOL1        -0.1760
      11    H7      19.466933   17.760489   23.153901 H          1 MOL1         0.0833
      12    H8      20.609702   17.015822   24.235468 H          1 MOL1         0.0833
      13    C5      20.399744   19.134870   24.559079 C.3        1 MOL1         0.1219
      14    H9      21.258193   19.065258   25.242708 H          1 MOL1         0.0790
      15    C6      20.474732   20.527312   23.879481 C.3        1 MOL1        -0.1760
      16    H10     20.244755   21.272097   24.652945 H          1 MOL1         0.0833
      17    H11     21.506976   20.747300   23.582427 H          1 MOL1         0.0833
      18    C7      19.518820   20.772026   22.682035 C.3        1 MOL1        -0.1684
      19    H12     19.268598   21.841620   22.688611 H          1 MOL1         0.0833
      20    H13     18.564414   20.250295   22.835050 H          1 MOL1         0.0833
      21    C8      20.113874   20.456418   21.281432 C.3        1 MOL1        -0.1684
      22    H14     21.175742   20.731721   21.229459 H          1 MOL1         0.0833
      23    H15     19.606877   21.116758   20.564514 H          1 MOL1         0.0833
      24    O1      19.199770   19.062706   25.320362 O.3        1 MOL1        -0.5508
      25    H16     19.203033   18.192551   25.770119 H          1 MOL1         0.3780
@<TRIPOS>BOND
    1     1     2    1
    2     1     3    1
    3     1     4    1
    4     4     5    1
    5     4     6    1
    6     4     7    1
    7     7     8    1
    8     7     9    1
    9     7    10    1
   10    10    11    1
   11    10    12    1
   12    10    13    1
   13    13    14    1
   14    13    15    1
   15    15    16    1
   16    15    17    1
   17    15    18    1
   18    18    19    1
   19    18    20    1
   20     1    21    1
   21    18    21    1
   22    21    22    1
   23    21    23    1
   24    13    24    1
   25    24    25    1
@<TRIPOS>SUBSTRUCTURE
       1 MOL1            1 RESIDUE      1      MOL     
@<SCITEGIC>MOL_PROPERTY
VM2 Rank
SciTegic.value.IntegerValue
81

@<SCITEGIC>MOL_PROPERTY
Conf_Id
SciTegic.value.IntegerValue
190

@<SCITEGIC>MOL_PROPERTY
Probability
SciTegic.value.DoubleValue
0.10

@<SCITEGIC>MOL_PROPERTY
Sum Probability
SciTegic.value.DoubleValue
99.55

@<SCITEGIC>MOL_PROPERTY
Delta G
SciTegic.value.DoubleValue
2.275

@<SCITEGIC>MOL_PROPERTY
G
SciTegic.value.DoubleValue
64.350

@<SCITEGIC>MOL_PROPERTY
E
SciTegic.value.DoubleValue
32.026

@<SCITEGIC>MOL_PROPERTY
-TS
SciTegic.value.DoubleValue
32.324

@<SCITEGIC>MOL_PROPERTY
U+W
SciTegic.value.DoubleValue
11.459

@<SCITEGIC>MOL_PROPERTY
U
SciTegic.value.DoubleValue
13.691

@<SCITEGIC>MOL_PROPERTY
W
SciTegic.value.DoubleValue
-2.232

@<SCITEGIC>MOL_PROPERTY
W(PB)
SciTegic.value.DoubleValue
-4.350

@<SCITEGIC>MOL_PROPERTY
W(SA)
SciTegic.value.DoubleValue
2.119

@<SCITEGIC>MOL_PROPERTY
Valence
SciTegic.value.DoubleValue
18.570

@<SCITEGIC>MOL_PROPERTY
Coulomb
SciTegic.value.DoubleValue
-7.751

@<SCITEGIC>MOL_PROPERTY
VdW
SciTegic.value.DoubleValue
2.872

@<SCITEGIC>MOL_PROPERTY
VdW6
SciTegic.value.DoubleValue
-12.549

@<SCITEGIC>MOL_PROPERTY
VdW12
SciTegic.value.DoubleValue
15.421

@<SCITEGIC>MOL_PROPERTY
Bond
SciTegic.value.DoubleValue
0.436

@<SCITEGIC>MOL_PROPERTY
Angle
SciTegic.value.DoubleValue
4.707

@<SCITEGIC>MOL_PROPERTY
Pdih
SciTegic.value.DoubleValue
13.427

@<SCITEGIC>MOL_PROPERTY
Idih
SciTegic.value.DoubleValue
0.000

@<SCITEGIC>MOL_PROPERTY
Tether
SciTegic.value.DoubleValue
0.000

@<TRIPOS>MOLECULE
guest-s17_vm2.mol2 : vm2 ligand conformer 82
          25          25           1
SMALL
USER_CHARGES
 
@<TRIPOS>ATOM
       1    C1      19.855941   19.055247   20.790491 C.3        1 MOL1        -0.1684
       2    H1      18.910763   18.655276   21.179142 H          1 MOL1         0.0833
       3    H2      19.780306   18.943716   19.700189 H          1 MOL1         0.0833
       4    C2      21.038681   18.183076   21.280082 C.3        1 MOL1        -0.1684
       5    H3      21.984617   18.737585   21.218592 H          1 MOL1         0.0833
       6    H4      21.140437   17.354451   20.565874 H          1 MOL1         0.0833
       7    C3      20.850737   17.545385   22.684865 C.3        1 MOL1        -0.1684
       8    H5      21.428734   16.611271   22.691005 H          1 MOL1         0.0833
       9    H6      19.807678   17.241709   22.847088 H          1 MOL1         0.0833
      10    C4      21.363997   18.398626   23.874855 C.3        1 MOL1        -0.1760
      11    H7      21.732773   17.712070   24.648474 H          1 MOL1         0.0833
      12    H8      22.248090   18.970287   23.568676 H          1 MOL1         0.0833
      13    C5      20.333012   19.334755   24.558311 C.3        1 MOL1         0.1219
      14    H9      20.897003   19.993024   25.234866 H          1 MOL1         0.0790
      15    C6      19.494910   20.233330   23.619870 C.3        1 MOL1        -0.1760
      16    H10     18.691441   19.643554   23.164231 H          1 MOL1         0.0833
      17    H11     18.983198   20.982334   24.237903 H          1 MOL1         0.0833
      18    C7      20.320869   20.976085   22.537058 C.3        1 MOL1        -0.1684
      19    H12     21.396520   20.843372   22.701699 H          1 MOL1         0.0833
      20    H13     20.152222   22.056395   22.643167 H          1 MOL1         0.0833
      21    C8      19.967807   20.574528   21.084653 C.3        1 MOL1        -0.1684
      22    H14     20.720337   21.011567   20.414248 H          1 MOL1         0.0833
      23    H15     19.014158   21.046088   20.810846 H          1 MOL1         0.0833
      24    O1      19.438046   18.541969   25.329816 O.3        1 MOL1        -0.5508
      25    H16     18.829442   19.162460   25.781537 H          1 MOL1         0.3780
@<TRIPOS>BOND
    1     1     2    1
    2     1     3    1
    3     1     4    1
    4     4     5    1
    5     4     6    1
    6     4     7    1
    7     7     8    1
    8     7     9    1
    9     7    10    1
   10    10    11    1
   11    10    12    1
   12    10    13    1
   13    13    14    1
   14    13    15    1
   15    15    16    1
   16    15    17    1
   17    15    18    1
   18    18    19    1
   19    18    20    1
   20     1    21    1
   21    18    21    1
   22    21    22    1
   23    21    23    1
   24    13    24    1
   25    24    25    1
@<TRIPOS>SUBSTRUCTURE
       1 MOL1            1 RESIDUE      1      MOL     
@<SCITEGIC>MOL_PROPERTY
VM2 Rank
SciTegic.value.IntegerValue
82

@<SCITEGIC>MOL_PROPERTY
Conf_Id
SciTegic.value.IntegerValue
216

@<SCITEGIC>MOL_PROPERTY
Probability
SciTegic.value.DoubleValue
0.10

@<SCITEGIC>MOL_PROPERTY
Sum Probability
SciTegic.value.DoubleValue
99.64

@<SCITEGIC>MOL_PROPERTY
Delta G
SciTegic.value.DoubleValue
2.299

@<SCITEGIC>MOL_PROPERTY
G
SciTegic.value.DoubleValue
64.375

@<SCITEGIC>MOL_PROPERTY
E
SciTegic.value.DoubleValue
32.051

@<SCITEGIC>MOL_PROPERTY
-TS
SciTegic.value.DoubleValue
32.324

@<SCITEGIC>MOL_PROPERTY
U+W
SciTegic.value.DoubleValue
11.483

@<SCITEGIC>MOL_PROPERTY
U
SciTegic.value.DoubleValue
13.691

@<SCITEGIC>MOL_PROPERTY
W
SciTegic.value.DoubleValue
-2.207

@<SCITEGIC>MOL_PROPERTY
W(PB)
SciTegic.value.DoubleValue
-4.339

@<SCITEGIC>MOL_PROPERTY
W(SA)
SciTegic.value.DoubleValue
2.132

@<SCITEGIC>MOL_PROPERTY
Valence
SciTegic.value.DoubleValue
18.570

@<SCITEGIC>MOL_PROPERTY
Coulomb
SciTegic.value.DoubleValue
-7.751

@<SCITEGIC>MOL_PROPERTY
VdW
SciTegic.value.DoubleValue
2.872

@<SCITEGIC>MOL_PROPERTY
VdW6
SciTegic.value.DoubleValue
-12.549

@<SCITEGIC>MOL_PROPERTY
VdW12
SciTegic.value.DoubleValue
15.421

@<SCITEGIC>MOL_PROPERTY
Bond
SciTegic.value.DoubleValue
0.436

@<SCITEGIC>MOL_PROPERTY
Angle
SciTegic.value.DoubleValue
4.706

@<SCITEGIC>MOL_PROPERTY
Pdih
SciTegic.value.DoubleValue
13.427

@<SCITEGIC>MOL_PROPERTY
Idih
SciTegic.value.DoubleValue
0.000

@<SCITEGIC>MOL_PROPERTY
Tether
SciTegic.value.DoubleValue
0.000

@<TRIPOS>MOLECULE
guest-s17_vm2.mol2 : vm2 ligand conformer 83
          25          25           1
SMALL
USER_CHARGES
 
@<TRIPOS>ATOM
       1    C1      20.230385   19.145806   20.610613 C.3        1 MOL1        -0.1684
       2    H1      19.191368   18.802163   20.516009 H          1 MOL1         0.0833
       3    H2      20.579527   19.319947   19.583669 H          1 MOL1         0.0833
       4    C2      21.106127   18.023857   21.215514 C.3        1 MOL1        -0.1684
       5    H3      21.023131   17.150528   20.554249 H          1 MOL1         0.0833
       6    H4      22.164842   18.314785   21.188101 H          1 MOL1         0.0833
       7    C3      20.708127   17.580297   22.643135 C.3        1 MOL1        -0.1684
       8    H5      21.046747   16.543144   22.770063 H          1 MOL1         0.0833
       9    H6      19.615410   17.537726   22.735533 H          1 MOL1         0.0833
      10    C4      21.356113   18.419880   23.782800 C.3        1 MOL1        -0.1760
      11    H7      21.820496   17.717088   24.486615 H          1 MOL1         0.0833
      12    H8      22.185429   19.024394   23.394920 H          1 MOL1         0.0833
      13    C5      20.411431   19.322378   24.615252 C.3        1 MOL1         0.1219
      14    H9      20.959979   19.584265   25.531632 H          1 MOL1         0.0790
      15    C6      20.026216   20.665632   23.951801 C.3        1 MOL1        -0.1760
      16    H10     19.365243   21.199710   24.646787 H          1 MOL1         0.0833
      17    H11     20.920340   21.296324   23.865473 H          1 MOL1         0.0833
      18    C7      19.312822   20.578212   22.579355 C.3        1 MOL1        -0.1684
      19    H12     18.714069   21.491587   22.461030 H          1 MOL1         0.0833
      20    H13     18.587335   19.753952   22.574955 H          1 MOL1         0.0833
      21    C8      20.277287   20.493337   21.366914 C.3        1 MOL1        -0.1684
      22    H14     19.986796   21.279946   20.657051 H          1 MOL1         0.0833
      23    H15     21.309857   20.728926   21.656669 H          1 MOL1         0.0833
      24    O1      19.235492   18.613600   24.994616 O.3        1 MOL1        -0.5508
      25    H16     18.677870   19.242361   25.496238 H          1 MOL1         0.3780
@<TRIPOS>BOND
    1     1     2    1
    2     1     3    1
    3     1     4    1
    4     4     5    1
    5     4     6    1
    6     4     7    1
    7     7     8    1
    8     7     9    1
    9     7    10    1
   10    10    11    1
   11    10    12    1
   12    10    13    1
   13    13    14    1
   14    13    15    1
   15    15    16    1
   16    15    17    1
   17    15    18    1
   18    18    19    1
   19    18    20    1
   20     1    21    1
   21    18    21    1
   22    21    22    1
   23    21    23    1
   24    13    24    1
   25    24    25    1
@<TRIPOS>SUBSTRUCTURE
       1 MOL1            1 RESIDUE      1      MOL     
@<SCITEGIC>MOL_PROPERTY
VM2 Rank
SciTegic.value.IntegerValue
83

@<SCITEGIC>MOL_PROPERTY
Conf_Id
SciTegic.value.IntegerValue
1023

@<SCITEGIC>MOL_PROPERTY
Probability
SciTegic.value.DoubleValue
0.10

@<SCITEGIC>MOL_PROPERTY
Sum Probability
SciTegic.value.DoubleValue
99.74

@<SCITEGIC>MOL_PROPERTY
Delta G
SciTegic.value.DoubleValue
2.303

@<SCITEGIC>MOL_PROPERTY
G
SciTegic.value.DoubleValue
64.379

@<SCITEGIC>MOL_PROPERTY
E
SciTegic.value.DoubleValue
32.413

@<SCITEGIC>MOL_PROPERTY
-TS
SciTegic.value.DoubleValue
31.966

@<SCITEGIC>MOL_PROPERTY
U+W
SciTegic.value.DoubleValue
11.846

@<SCITEGIC>MOL_PROPERTY
U
SciTegic.value.DoubleValue
14.106

@<SCITEGIC>MOL_PROPERTY
W
SciTegic.value.DoubleValue
-2.260

@<SCITEGIC>MOL_PROPERTY
W(PB)
SciTegic.value.DoubleValue
-4.387

@<SCITEGIC>MOL_PROPERTY
W(SA)
SciTegic.value.DoubleValue
2.127

@<SCITEGIC>MOL_PROPERTY
Valence
SciTegic.value.DoubleValue
19.023

@<SCITEGIC>MOL_PROPERTY
Coulomb
SciTegic.value.DoubleValue
-7.308

@<SCITEGIC>MOL_PROPERTY
VdW
SciTegic.value.DoubleValue
2.391

@<SCITEGIC>MOL_PROPERTY
VdW6
SciTegic.value.DoubleValue
-12.497

@<SCITEGIC>MOL_PROPERTY
VdW12
SciTegic.value.DoubleValue
14.887

@<SCITEGIC>MOL_PROPERTY
Bond
SciTegic.value.DoubleValue
0.377

@<SCITEGIC>MOL_PROPERTY
Angle
SciTegic.value.DoubleValue
4.356

@<SCITEGIC>MOL_PROPERTY
Pdih
SciTegic.value.DoubleValue
14.291

@<SCITEGIC>MOL_PROPERTY
Idih
SciTegic.value.DoubleValue
0.000

@<SCITEGIC>MOL_PROPERTY
Tether
SciTegic.value.DoubleValue
0.000

@<TRIPOS>MOLECULE
guest-s17_vm2.mol2 : vm2 ligand conformer 84
          25          25           1
SMALL
USER_CHARGES
 
@<TRIPOS>ATOM
       1    C1      19.665841   18.985222   21.102349 C.3        1 MOL1        -0.1684
       2    H1      18.715681   18.812557   21.617204 H          1 MOL1         0.0833
       3    H2      19.403920   18.891298   20.039264 H          1 MOL1         0.0833
       4    C2      20.685383   17.855251   21.405755 C.3        1 MOL1        -0.1684
       5    H3      21.276357   17.700525   20.492473 H          1 MOL1         0.0833
       6    H4      20.144303   16.912535   21.564509 H          1 MOL1         0.0833
       7    C3      21.697815   18.072612   22.558418 C.3        1 MOL1        -0.1684
       8    H5      22.265731   18.998090   22.412756 H          1 MOL1         0.0833
       9    H6      22.450163   17.276784   22.471977 H          1 MOL1         0.0833
      10    C4      21.133930   17.994668   24.000168 C.3        1 MOL1        -0.1760
      11    H7      20.641851   17.024000   24.147359 H          1 MOL1         0.0833
      12    H8      21.995355   17.986229   24.680626 H          1 MOL1         0.0833
      13    C5      20.190606   19.123229   24.483825 C.3        1 MOL1         0.1219
      14    H9      20.303870   19.155307   25.577127 H          1 MOL1         0.0790
      15    C6      20.520516   20.548351   23.962516 C.3        1 MOL1        -0.1760
      16    H10     20.272278   21.240436   24.777669 H          1 MOL1         0.0833
      17    H11     21.602975   20.659329   23.824474 H          1 MOL1         0.0833
      18    C7      19.765001   21.057005   22.700088 C.3        1 MOL1        -0.1684
      19    H12     19.957268   22.136138   22.627125 H          1 MOL1         0.0833
      20    H13     18.679844   20.974546   22.848106 H          1 MOL1         0.0833
      21    C8      20.159043   20.435607   21.334955 C.3        1 MOL1        -0.1684
      22    H14     21.238349   20.524062   21.158121 H          1 MOL1         0.0833
      23    H15     19.695046   21.061424   20.560189 H          1 MOL1         0.0833
      24    O1      18.845865   18.771055   24.211926 O.3        1 MOL1        -0.5508
      25    H16     18.799505   18.759965   23.237645 H          1 MOL1         0.3780
@<TRIPOS>BOND
    1     1     2    1
    2     1     3    1
    3     1     4    1
    4     4     5    1
    5     4     6    1
    6     4     7    1
    7     7     8    1
    8     7     9    1
    9     7    10    1
   10    10    11    1
   11    10    12    1
   12    10    13    1
   13    13    14    1
   14    13    15    1
   15    15    16    1
   16    15    17    1
   17    15    18    1
   18    18    19    1
   19    18    20    1
   20     1    21    1
   21    18    21    1
   22    21    22    1
   23    21    23    1
   24    13    24    1
   25    24    25    1
@<TRIPOS>SUBSTRUCTURE
       1 MOL1            1 RESIDUE      1      MOL     
@<SCITEGIC>MOL_PROPERTY
VM2 Rank
SciTegic.value.IntegerValue
84

@<SCITEGIC>MOL_PROPERTY
Conf_Id
SciTegic.value.IntegerValue
538

@<SCITEGIC>MOL_PROPERTY
Probability
SciTegic.value.DoubleValue
0.07

@<SCITEGIC>MOL_PROPERTY
Sum Probability
SciTegic.value.DoubleValue
99.81

@<SCITEGIC>MOL_PROPERTY
Delta G
SciTegic.value.DoubleValue
2.469

@<SCITEGIC>MOL_PROPERTY
G
SciTegic.value.DoubleValue
64.544

@<SCITEGIC>MOL_PROPERTY
E
SciTegic.value.DoubleValue
31.741

@<SCITEGIC>MOL_PROPERTY
-TS
SciTegic.value.DoubleValue
32.803

@<SCITEGIC>MOL_PROPERTY
U+W
SciTegic.value.DoubleValue
11.174

@<SCITEGIC>MOL_PROPERTY
U
SciTegic.value.DoubleValue
12.093

@<SCITEGIC>MOL_PROPERTY
W
SciTegic.value.DoubleValue
-0.919

@<SCITEGIC>MOL_PROPERTY
W(PB)
SciTegic.value.DoubleValue
-3.032

@<SCITEGIC>MOL_PROPERTY
W(SA)
SciTegic.value.DoubleValue
2.112

@<SCITEGIC>MOL_PROPERTY
Valence
SciTegic.value.DoubleValue
19.645

@<SCITEGIC>MOL_PROPERTY
Coulomb
SciTegic.value.DoubleValue
-9.929

@<SCITEGIC>MOL_PROPERTY
VdW
SciTegic.value.DoubleValue
2.377

@<SCITEGIC>MOL_PROPERTY
VdW6
SciTegic.value.DoubleValue
-13.908

@<SCITEGIC>MOL_PROPERTY
VdW12
SciTegic.value.DoubleValue
16.285

@<SCITEGIC>MOL_PROPERTY
Bond
SciTegic.value.DoubleValue
0.498

@<SCITEGIC>MOL_PROPERTY
Angle
SciTegic.value.DoubleValue
8.148

@<SCITEGIC>MOL_PROPERTY
Pdih
SciTegic.value.DoubleValue
11.000

@<SCITEGIC>MOL_PROPERTY
Idih
SciTegic.value.DoubleValue
0.000

@<SCITEGIC>MOL_PROPERTY
Tether
SciTegic.value.DoubleValue
0.000

@<TRIPOS>MOLECULE
guest-s17_vm2.mol2 : vm2 ligand conformer 85
          25          25           1
SMALL
USER_CHARGES
 
@<TRIPOS>ATOM
       1    C1      20.388290   19.340480   20.718913 C.3        1 MOL1        -0.1684
       2    H1      19.873891   18.761756   19.939696 H          1 MOL1         0.0833
       3    H2      20.957869   20.114259   20.186827 H          1 MOL1         0.0833
       4    C2      21.378442   18.387286   21.436308 C.3        1 MOL1        -0.1684
       5    H3      21.832709   17.750783   20.664682 H          1 MOL1         0.0833
       6    H4      22.219739   18.953162   21.852156 H          1 MOL1         0.0833
       7    C3      20.755917   17.467332   22.519478 C.3        1 MOL1        -0.1684
       8    H5      21.198564   16.469638   22.395896 H          1 MOL1         0.0833
       9    H6      19.680941   17.321178   22.357169 H          1 MOL1         0.0833
      10    C4      21.042966   17.910797   23.980011 C.3        1 MOL1        -0.1760
      11    H7      22.127266   18.027769   24.105295 H          1 MOL1         0.0833
      12    H8      20.766320   17.082451   24.645003 H          1 MOL1         0.0833
      13    C5      20.347441   19.192138   24.510588 C.3        1 MOL1         0.1219
      14    H9      20.715656   19.311580   25.539831 H          1 MOL1         0.0790
      15    C6      20.732005   20.503829   23.771605 C.3        1 MOL1        -0.1760
      16    H10     20.792931   21.294792   24.530005 H          1 MOL1         0.0833
      17    H11     21.753706   20.423155   23.386790 H          1 MOL1         0.0833
      18    C7      19.784815   21.024654   22.653896 C.3        1 MOL1        -0.1684
      19    H12     20.273178   21.867243   22.146540 H          1 MOL1         0.0833
      20    H13     18.894042   21.446380   23.139181 H          1 MOL1         0.0833
      21    C8      19.296397   20.012407   21.588114 C.3        1 MOL1        -0.1684
      22    H14     18.624528   20.554462   20.909186 H          1 MOL1         0.0833
      23    H15     18.658698   19.253617   22.054002 H          1 MOL1         0.0833
      24    O1      18.937727   19.004076   24.581088 O.3        1 MOL1        -0.5508
      25    H16     18.791545   18.143261   25.021983 H          1 MOL1         0.3780
@<TRIPOS>BOND
    1     1     2    1
    2     1     3    1
    3     1     4    1
    4     4     5    1
    5     4     6    1
    6     4     7    1
    7     7     8    1
    8     7     9    1
    9     7    10    1
   10    10    11    1
   11    10    12    1
   12    10    13    1
   13    13    14    1
   14    13    15    1
   15    15    16    1
   16    15    17    1
   17    15    18    1
   18    18    19    1
   19    18    20    1
   20     1    21    1
   21    18    21    1
   22    21    22    1
   23    21    23    1
   24    13    24    1
   25    24    25    1
@<TRIPOS>SUBSTRUCTURE
       1 MOL1            1 RESIDUE      1      MOL     
@<SCITEGIC>MOL_PROPERTY
VM2 Rank
SciTegic.value.IntegerValue
85

@<SCITEGIC>MOL_PROPERTY
Conf_Id
SciTegic.value.IntegerValue
319

@<SCITEGIC>MOL_PROPERTY
Probability
SciTegic.value.DoubleValue
0.02

@<SCITEGIC>MOL_PROPERTY
Sum Probability
SciTegic.value.DoubleValue
99.83

@<SCITEGIC>MOL_PROPERTY
Delta G
SciTegic.value.DoubleValue
3.276

@<SCITEGIC>MOL_PROPERTY
G
SciTegic.value.DoubleValue
65.351

@<SCITEGIC>MOL_PROPERTY
E
SciTegic.value.DoubleValue
32.519

@<SCITEGIC>MOL_PROPERTY
-TS
SciTegic.value.DoubleValue
32.832

@<SCITEGIC>MOL_PROPERTY
U+W
SciTegic.value.DoubleValue
11.951

@<SCITEGIC>MOL_PROPERTY
U
SciTegic.value.DoubleValue
13.952

@<SCITEGIC>MOL_PROPERTY
W
SciTegic.value.DoubleValue
-2.000

@<SCITEGIC>MOL_PROPERTY
W(PB)
SciTegic.value.DoubleValue
-4.130

@<SCITEGIC>MOL_PROPERTY
W(SA)
SciTegic.value.DoubleValue
2.130

@<SCITEGIC>MOL_PROPERTY
Valence
SciTegic.value.DoubleValue
17.543

@<SCITEGIC>MOL_PROPERTY
Coulomb
SciTegic.value.DoubleValue
-6.274

@<SCITEGIC>MOL_PROPERTY
VdW
SciTegic.value.DoubleValue
2.682

@<SCITEGIC>MOL_PROPERTY
VdW6
SciTegic.value.DoubleValue
-13.612

@<SCITEGIC>MOL_PROPERTY
VdW12
SciTegic.value.DoubleValue
16.294

@<SCITEGIC>MOL_PROPERTY
Bond
SciTegic.value.DoubleValue
0.512

@<SCITEGIC>MOL_PROPERTY
Angle
SciTegic.value.DoubleValue
7.073

@<SCITEGIC>MOL_PROPERTY
Pdih
SciTegic.value.DoubleValue
9.959

@<SCITEGIC>MOL_PROPERTY
Idih
SciTegic.value.DoubleValue
0.000

@<SCITEGIC>MOL_PROPERTY
Tether
SciTegic.value.DoubleValue
0.000

@<TRIPOS>MOLECULE
guest-s17_vm2.mol2 : vm2 ligand conformer 86
          25          25           1
SMALL
USER_CHARGES
 
@<TRIPOS>ATOM
       1    C1      20.482900   19.150966   20.721460 C.3        1 MOL1        -0.1684
       2    H1      19.717578   19.148230   19.933435 H          1 MOL1         0.0833
       3    H2      21.444596   19.044500   20.201773 H          1 MOL1         0.0833
       4    C2      20.235814   17.903630   21.605952 C.3        1 MOL1        -0.1684
       5    H3      19.240145   17.948649   22.059925 H          1 MOL1         0.0833
       6    H4      20.192765   17.032165   20.938966 H          1 MOL1         0.0833
       7    C3      21.301179   17.599763   22.688425 C.3        1 MOL1        -0.1684
       8    H5      22.258888   17.387296   22.194950 H          1 MOL1         0.0833
       9    H6      21.008609   16.663970   23.183930 H          1 MOL1         0.0833
      10    C4      21.540112   18.667015   23.793679 C.3        1 MOL1        -0.1760
      11    H7      22.157714   18.191159   24.566099 H          1 MOL1         0.0833
      12    H8      22.171970   19.471808   23.404415 H          1 MOL1         0.0833
      13    C5      20.302463   19.275079   24.509925 C.3        1 MOL1         0.1219
      14    H9      20.626769   19.482074   25.540055 H          1 MOL1         0.0790
      15    C6      19.828169   20.643748   23.954142 C.3        1 MOL1        -0.1760
      16    H10     19.021592   21.005590   24.604840 H          1 MOL1         0.0833
      17    H11     20.642558   21.369313   24.078282 H          1 MOL1         0.0833
      18    C7      19.323615   20.708498   22.486678 C.3        1 MOL1        -0.1684
      19    H12     18.884506   21.705167   22.343718 H          1 MOL1         0.0833
      20    H13     18.494313   20.008936   22.324958 H          1 MOL1         0.0833
      21    C8      20.435370   20.534983   21.418505 C.3        1 MOL1        -0.1684
      22    H14     20.278730   21.288048   20.634120 H          1 MOL1         0.0833
      23    H15     21.415179   20.783034   21.842028 H          1 MOL1         0.0833
      24    O1      19.214378   18.359318   24.581235 O.3        1 MOL1        -0.5508
      25    H16     18.474154   18.836242   25.007110 H          1 MOL1         0.3780
@<TRIPOS>BOND
    1     1     2    1
    2     1     3    1
    3     1     4    1
    4     4     5    1
    5     4     6    1
    6     4     7    1
    7     7     8    1
    8     7     9    1
    9     7    10    1
   10    10    11    1
   11    10    12    1
   12    10    13    1
   13    13    14    1
   14    13    15    1
   15    15    16    1
   16    15    17    1
   17    15    18    1
   18    18    19    1
   19    18    20    1
   20     1    21    1
   21    18    21    1
   22    21    22    1
   23    21    23    1
   24    13    24    1
   25    24    25    1
@<TRIPOS>SUBSTRUCTURE
       1 MOL1            1 RESIDUE      1      MOL     
@<SCITEGIC>MOL_PROPERTY
VM2 Rank
SciTegic.value.IntegerValue
86

@<SCITEGIC>MOL_PROPERTY
Conf_Id
SciTegic.value.IntegerValue
613

@<SCITEGIC>MOL_PROPERTY
Probability
SciTegic.value.DoubleValue
0.02

@<SCITEGIC>MOL_PROPERTY
Sum Probability
SciTegic.value.DoubleValue
99.85

@<SCITEGIC>MOL_PROPERTY
Delta G
SciTegic.value.DoubleValue
3.276

@<SCITEGIC>MOL_PROPERTY
G
SciTegic.value.DoubleValue
65.352

@<SCITEGIC>MOL_PROPERTY
E
SciTegic.value.DoubleValue
32.520

@<SCITEGIC>MOL_PROPERTY
-TS
SciTegic.value.DoubleValue
32.832

@<SCITEGIC>MOL_PROPERTY
U+W
SciTegic.value.DoubleValue
11.952

@<SCITEGIC>MOL_PROPERTY
U
SciTegic.value.DoubleValue
13.952

@<SCITEGIC>MOL_PROPERTY
W
SciTegic.value.DoubleValue
-2.000

@<SCITEGIC>MOL_PROPERTY
W(PB)
SciTegic.value.DoubleValue
-4.114

@<SCITEGIC>MOL_PROPERTY
W(SA)
SciTegic.value.DoubleValue
2.114

@<SCITEGIC>MOL_PROPERTY
Valence
SciTegic.value.DoubleValue
17.543

@<SCITEGIC>MOL_PROPERTY
Coulomb
SciTegic.value.DoubleValue
-6.274

@<SCITEGIC>MOL_PROPERTY
VdW
SciTegic.value.DoubleValue
2.682

@<SCITEGIC>MOL_PROPERTY
VdW6
SciTegic.value.DoubleValue
-13.612

@<SCITEGIC>MOL_PROPERTY
VdW12
SciTegic.value.DoubleValue
16.294

@<SCITEGIC>MOL_PROPERTY
Bond
SciTegic.value.DoubleValue
0.512

@<SCITEGIC>MOL_PROPERTY
Angle
SciTegic.value.DoubleValue
7.073

@<SCITEGIC>MOL_PROPERTY
Pdih
SciTegic.value.DoubleValue
9.958

@<SCITEGIC>MOL_PROPERTY
Idih
SciTegic.value.DoubleValue
0.000

@<SCITEGIC>MOL_PROPERTY
Tether
SciTegic.value.DoubleValue
0.000

@<TRIPOS>MOLECULE
guest-s17_vm2.mol2 : vm2 ligand conformer 87
          25          25           1
SMALL
USER_CHARGES
 
@<TRIPOS>ATOM
       1    C1      20.138860   19.137173   20.769366 C.3        1 MOL1        -0.1684
       2    H1      21.040911   19.477707   20.242611 H          1 MOL1         0.0833
       3    H2      19.427055   18.863882   19.978378 H          1 MOL1         0.0833
       4    C2      20.484436   17.847681   21.560443 C.3        1 MOL1        -0.1684
       5    H3      19.592459   17.391058   22.004251 H          1 MOL1         0.0833
       6    H4      20.822292   17.112092   20.817426 H          1 MOL1         0.0833
       7    C3      21.627424   18.001432   22.596808 C.3        1 MOL1        -0.1684
       8    H5      22.300198   18.816227   22.308185 H          1 MOL1         0.0833
       9    H6      22.255967   17.102701   22.531738 H          1 MOL1         0.0833
      10    C4      21.206569   18.138502   24.087138 C.3        1 MOL1        -0.1760
      11    H7      20.903119   17.145636   24.444858 H          1 MOL1         0.0833
      12    H8      22.102268   18.392164   24.668622 H          1 MOL1         0.0833
      13    C5      20.083075   19.130072   24.483391 C.3        1 MOL1         0.1219
      14    H9      20.056871   19.124291   25.582553 H          1 MOL1         0.0790
      15    C6      20.266321   20.614776   24.077747 C.3        1 MOL1        -0.1760
      16    H10     19.379497   21.158381   24.429691 H          1 MOL1         0.0833
      17    H11     21.103219   21.023367   24.658608 H          1 MOL1         0.0833
      18    C7      20.493823   20.986766   22.585480 C.3        1 MOL1        -0.1684
      19    H12     21.538564   20.822008   22.300537 H          1 MOL1         0.0833
      20    H13     20.367572   22.075715   22.512887 H          1 MOL1         0.0833
      21    C8      19.539463   20.336245   21.551007 C.3        1 MOL1        -0.1684
      22    H14     18.568102   20.088677   21.994023 H          1 MOL1         0.0833
      23    H15     19.305796   21.105739   20.802280 H          1 MOL1         0.0833
      24    O1      18.824030   18.650353   24.048620 O.3        1 MOL1        -0.5508
      25    H16     18.891113   18.672120   23.072115 H          1 MOL1         0.3780
@<TRIPOS>BOND
    1     1     2    1
    2     1     3    1
    3     1     4    1
    4     4     5    1
    5     4     6    1
    6     4     7    1
    7     7     8    1
    8     7     9    1
    9     7    10    1
   10    10    11    1
   11    10    12    1
   12    10    13    1
   13    13    14    1
   14    13    15    1
   15    15    16    1
   16    15    17    1
   17    15    18    1
   18    18    19    1
   19    18    20    1
   20     1    21    1
   21    18    21    1
   22    21    22    1
   23    21    23    1
   24    13    24    1
   25    24    25    1
@<TRIPOS>SUBSTRUCTURE
       1 MOL1            1 RESIDUE      1      MOL     
@<SCITEGIC>MOL_PROPERTY
VM2 Rank
SciTegic.value.IntegerValue
87

@<SCITEGIC>MOL_PROPERTY
Conf_Id
SciTegic.value.IntegerValue
350

@<SCITEGIC>MOL_PROPERTY
Probability
SciTegic.value.DoubleValue
0.02

@<SCITEGIC>MOL_PROPERTY
Sum Probability
SciTegic.value.DoubleValue
99.87

@<SCITEGIC>MOL_PROPERTY
Delta G
SciTegic.value.DoubleValue
3.344

@<SCITEGIC>MOL_PROPERTY
G
SciTegic.value.DoubleValue
65.419

@<SCITEGIC>MOL_PROPERTY
E
SciTegic.value.DoubleValue
32.133

@<SCITEGIC>MOL_PROPERTY
-TS
SciTegic.value.DoubleValue
33.286

@<SCITEGIC>MOL_PROPERTY
U+W
SciTegic.value.DoubleValue
11.566

@<SCITEGIC>MOL_PROPERTY
U
SciTegic.value.DoubleValue
12.383

@<SCITEGIC>MOL_PROPERTY
W
SciTegic.value.DoubleValue
-0.817

@<SCITEGIC>MOL_PROPERTY
W(PB)
SciTegic.value.DoubleValue
-2.935

@<SCITEGIC>MOL_PROPERTY
W(SA)
SciTegic.value.DoubleValue
2.118

@<SCITEGIC>MOL_PROPERTY
Valence
SciTegic.value.DoubleValue
20.110

@<SCITEGIC>MOL_PROPERTY
Coulomb
SciTegic.value.DoubleValue
-10.324

@<SCITEGIC>MOL_PROPERTY
VdW
SciTegic.value.DoubleValue
2.596

@<SCITEGIC>MOL_PROPERTY
VdW6
SciTegic.value.DoubleValue
-14.356

@<SCITEGIC>MOL_PROPERTY
VdW12
SciTegic.value.DoubleValue
16.952

@<SCITEGIC>MOL_PROPERTY
Bond
SciTegic.value.DoubleValue
0.540

@<SCITEGIC>MOL_PROPERTY
Angle
SciTegic.value.DoubleValue
9.254

@<SCITEGIC>MOL_PROPERTY
Pdih
SciTegic.value.DoubleValue
10.316

@<SCITEGIC>MOL_PROPERTY
Idih
SciTegic.value.DoubleValue
0.000

@<SCITEGIC>MOL_PROPERTY
Tether
SciTegic.value.DoubleValue
0.000

@<TRIPOS>MOLECULE
guest-s17_vm2.mol2 : vm2 ligand conformer 88
          25          25           1
SMALL
USER_CHARGES
 
@<TRIPOS>ATOM
       1    C1      19.610821   18.886501   21.199337 C.3        1 MOL1        -0.1684
       2    H1      18.899650   18.477214   21.925279 H          1 MOL1         0.0833
       3    H2      19.186265   18.636718   20.217589 H          1 MOL1         0.0833
       4    C2      20.985839   18.187040   21.330322 C.3        1 MOL1        -0.1684
       5    H3      21.028371   17.393532   20.571848 H          1 MOL1         0.0833
       6    H4      21.804949   18.872706   21.077672 H          1 MOL1         0.0833
       7    C3      21.234283   17.518404   22.705421 C.3        1 MOL1        -0.1684
       8    H5      22.135074   16.897618   22.606393 H          1 MOL1         0.0833
       9    H6      20.421699   16.812230   22.920887 H          1 MOL1         0.0833
      10    C4      21.458393   18.467328   23.918567 C.3        1 MOL1        -0.1760
      11    H7      21.832450   17.842338   24.739865 H          1 MOL1         0.0833
      12    H8      22.281105   19.160861   23.709032 H          1 MOL1         0.0833
      13    C5      20.231533   19.240481   24.479782 C.3        1 MOL1         0.1219
      14    H9      20.453921   19.409355   25.543517 H          1 MOL1         0.0790
      15    C6      19.957379   20.658630   23.903167 C.3        1 MOL1        -0.1760
      16    H10     18.882154   20.873423   23.961365 H          1 MOL1         0.0833
      17    H11     20.427554   21.371118   24.593209 H          1 MOL1         0.0833
      18    C7      20.474979   21.011162   22.482914 C.3        1 MOL1        -0.1684
      19    H12     21.536824   20.763151   22.377781 H          1 MOL1         0.0833
      20    H13     20.436427   22.104582   22.385371 H          1 MOL1         0.0833
      21    C8      19.658376   20.428087   21.305386 C.3        1 MOL1        -0.1684
      22    H14     18.630049   20.810992   21.354102 H          1 MOL1         0.0833
      23    H15     20.082239   20.823409   20.372257 H          1 MOL1         0.0833
      24    O1      19.052397   18.445368   24.435105 O.3        1 MOL1        -0.5508
      25    H16     19.312872   17.550968   24.733219 H          1 MOL1         0.3780
@<TRIPOS>BOND
    1     1     2    1
    2     1     3    1
    3     1     4    1
    4     4     5    1
    5     4     6    1
    6     4     7    1
    7     7     8    1
    8     7     9    1
    9     7    10    1
   10    10    11    1
   11    10    12    1
   12    10    13    1
   13    13    14    1
   14    13    15    1
   15    15    16    1
   16    15    17    1
   17    15    18    1
   18    18    19    1
   19    18    20    1
   20     1    21    1
   21    18    21    1
   22    21    22    1
   23    21    23    1
   24    13    24    1
   25    24    25    1
@<TRIPOS>SUBSTRUCTURE
       1 MOL1            1 RESIDUE      1      MOL     
@<SCITEGIC>MOL_PROPERTY
VM2 Rank
SciTegic.value.IntegerValue
88

@<SCITEGIC>MOL_PROPERTY
Conf_Id
SciTegic.value.IntegerValue
1828

@<SCITEGIC>MOL_PROPERTY
Probability
SciTegic.value.DoubleValue
0.01

@<SCITEGIC>MOL_PROPERTY
Sum Probability
SciTegic.value.DoubleValue
99.88

@<SCITEGIC>MOL_PROPERTY
Delta G
SciTegic.value.DoubleValue
3.525

@<SCITEGIC>MOL_PROPERTY
G
SciTegic.value.DoubleValue
65.601

@<SCITEGIC>MOL_PROPERTY
E
SciTegic.value.DoubleValue
33.004

@<SCITEGIC>MOL_PROPERTY
-TS
SciTegic.value.DoubleValue
32.597

@<SCITEGIC>MOL_PROPERTY
U+W
SciTegic.value.DoubleValue
12.436

@<SCITEGIC>MOL_PROPERTY
U
SciTegic.value.DoubleValue
14.381

@<SCITEGIC>MOL_PROPERTY
W
SciTegic.value.DoubleValue
-1.944

@<SCITEGIC>MOL_PROPERTY
W(PB)
SciTegic.value.DoubleValue
-4.045

@<SCITEGIC>MOL_PROPERTY
W(SA)
SciTegic.value.DoubleValue
2.101

@<SCITEGIC>MOL_PROPERTY
Valence
SciTegic.value.DoubleValue
18.713

@<SCITEGIC>MOL_PROPERTY
Coulomb
SciTegic.value.DoubleValue
-6.942

@<SCITEGIC>MOL_PROPERTY
VdW
SciTegic.value.DoubleValue
2.610

@<SCITEGIC>MOL_PROPERTY
VdW6
SciTegic.value.DoubleValue
-13.510

@<SCITEGIC>MOL_PROPERTY
VdW12
SciTegic.value.DoubleValue
16.120

@<SCITEGIC>MOL_PROPERTY
Bond
SciTegic.value.DoubleValue
0.503

@<SCITEGIC>MOL_PROPERTY
Angle
SciTegic.value.DoubleValue
7.222

@<SCITEGIC>MOL_PROPERTY
Pdih
SciTegic.value.DoubleValue
10.987

@<SCITEGIC>MOL_PROPERTY
Idih
SciTegic.value.DoubleValue
0.000

@<SCITEGIC>MOL_PROPERTY
Tether
SciTegic.value.DoubleValue
0.000

@<TRIPOS>MOLECULE
guest-s17_vm2.mol2 : vm2 ligand conformer 89
          25          25           1
SMALL
USER_CHARGES
 
@<TRIPOS>ATOM
       1    C1      20.797041   19.513396   20.989668 C.3        1 MOL1        -0.1684
       2    H1      20.862292   19.719350   19.912674 H          1 MOL1         0.0833
       3    H2      21.608789   20.100065   21.434097 H          1 MOL1         0.0833
       4    C2      21.066414   18.004291   21.204826 C.3        1 MOL1        -0.1684
       5    H3      20.514322   17.439710   20.441186 H          1 MOL1         0.0833
       6    H4      22.129607   17.811073   21.007659 H          1 MOL1         0.0833
       7    C3      20.695637   17.416672   22.592301 C.3        1 MOL1        -0.1684
       8    H5      21.079018   16.387624   22.613257 H          1 MOL1         0.0833
       9    H6      19.608724   17.305310   22.687848 H          1 MOL1         0.0833
      10    C4      21.277100   18.160831   23.825851 C.3        1 MOL1        -0.1760
      11    H7      21.454316   17.403832   24.600747 H          1 MOL1         0.0833
      12    H8      22.269570   18.563454   23.586956 H          1 MOL1         0.0833
      13    C5      20.400845   19.260856   24.490959 C.3        1 MOL1         0.1219
      14    H9      20.822583   19.392501   25.497992 H          1 MOL1         0.0790
      15    C6      20.477721   20.662399   23.833583 C.3        1 MOL1        -0.1760
      16    H10     20.311027   21.404380   24.625236 H          1 MOL1         0.0833
      17    H11     21.507697   20.844497   23.504805 H          1 MOL1         0.0833
      18    C7      19.484625   20.992995   22.682297 C.3        1 MOL1        -0.1684
      19    H12     19.752230   21.980281   22.282034 H          1 MOL1         0.0833
      20    H13     18.474430   21.107317   23.097712 H          1 MOL1         0.0833
      21    C8      19.415786   19.992477   21.503187 C.3        1 MOL1        -0.1684
      22    H14     18.782738   19.142025   21.781525 H          1 MOL1         0.0833
      23    H15     18.881408   20.478402   20.675680 H          1 MOL1         0.0833
      24    O1      19.048831   18.839083   24.637328 O.3        1 MOL1        -0.5508
      25    H16     18.545320   19.627462   24.922662 H          1 MOL1         0.3780
@<TRIPOS>BOND
    1     1     2    1
    2     1     3    1
    3     1     4    1
    4     4     5    1
    5     4     6    1
    6     4     7    1
    7     7     8    1
    8     7     9    1
    9     7    10    1
   10    10    11    1
   11    10    12    1
   12    10    13    1
   13    13    14    1
   14    13    15    1
   15    15    16    1
   16    15    17    1
   17    15    18    1
   18    18    19    1
   19    18    20    1
   20     1    21    1
   21    18    21    1
   22    21    22    1
   23    21    23    1
   24    13    24    1
   25    24    25    1
@<TRIPOS>SUBSTRUCTURE
       1 MOL1            1 RESIDUE      1      MOL     
@<SCITEGIC>MOL_PROPERTY
VM2 Rank
SciTegic.value.IntegerValue
89

@<SCITEGIC>MOL_PROPERTY
Conf_Id
SciTegic.value.IntegerValue
1810

@<SCITEGIC>MOL_PROPERTY
Probability
SciTegic.value.DoubleValue
0.01

@<SCITEGIC>MOL_PROPERTY
Sum Probability
SciTegic.value.DoubleValue
99.89

@<SCITEGIC>MOL_PROPERTY
Delta G
SciTegic.value.DoubleValue
3.531

@<SCITEGIC>MOL_PROPERTY
G
SciTegic.value.DoubleValue
65.607

@<SCITEGIC>MOL_PROPERTY
E
SciTegic.value.DoubleValue
33.220

@<SCITEGIC>MOL_PROPERTY
-TS
SciTegic.value.DoubleValue
32.387

@<SCITEGIC>MOL_PROPERTY
U+W
SciTegic.value.DoubleValue
12.653

@<SCITEGIC>MOL_PROPERTY
U
SciTegic.value.DoubleValue
14.604

@<SCITEGIC>MOL_PROPERTY
W
SciTegic.value.DoubleValue
-1.952

@<SCITEGIC>MOL_PROPERTY
W(PB)
SciTegic.value.DoubleValue
-4.077

@<SCITEGIC>MOL_PROPERTY
W(SA)
SciTegic.value.DoubleValue
2.125

@<SCITEGIC>MOL_PROPERTY
Valence
SciTegic.value.DoubleValue
18.883

@<SCITEGIC>MOL_PROPERTY
Coulomb
SciTegic.value.DoubleValue
-7.234

@<SCITEGIC>MOL_PROPERTY
VdW
SciTegic.value.DoubleValue
2.956

@<SCITEGIC>MOL_PROPERTY
VdW6
SciTegic.value.DoubleValue
-13.442

@<SCITEGIC>MOL_PROPERTY
VdW12
SciTegic.value.DoubleValue
16.398

@<SCITEGIC>MOL_PROPERTY
Bond
SciTegic.value.DoubleValue
0.515

@<SCITEGIC>MOL_PROPERTY
Angle
SciTegic.value.DoubleValue
6.285

@<SCITEGIC>MOL_PROPERTY
Pdih
SciTegic.value.DoubleValue
12.082

@<SCITEGIC>MOL_PROPERTY
Idih
SciTegic.value.DoubleValue
0.000

@<SCITEGIC>MOL_PROPERTY
Tether
SciTegic.value.DoubleValue
0.000

@<TRIPOS>MOLECULE
guest-s17_vm2.mol2 : vm2 ligand conformer 90
          25          25           1
SMALL
USER_CHARGES
 
@<TRIPOS>ATOM
       1    C1      20.892855   19.355190   20.998375 C.3        1 MOL1        -0.1684
       2    H1      21.106715   19.257999   19.925338 H          1 MOL1         0.0833
       3    H2      21.866095   19.561002   21.457806 H          1 MOL1         0.0833
       4    C2      20.305768   18.015604   21.510158 C.3        1 MOL1        -0.1684
       5    H3      19.246487   18.123948   21.770305 H          1 MOL1         0.0833
       6    H4      20.317452   17.288442   20.687023 H          1 MOL1         0.0833
       7    C3      21.070844   17.398249   22.705821 C.3        1 MOL1        -0.1684
       8    H5      21.986488   16.927108   22.323489 H          1 MOL1         0.0833
       9    H6      20.466606   16.578092   23.116151 H          1 MOL1         0.0833
      10    C4      21.477988   18.361046   23.858319 C.3        1 MOL1        -0.1760
      11    H7      21.899829   17.742029   24.660756 H          1 MOL1         0.0833
      12    H8      22.312821   18.996304   23.539562 H          1 MOL1         0.0833
      13    C5      20.381142   19.253977   24.492336 C.3        1 MOL1         0.1219
      14    H9      20.746199   19.482369   25.504205 H          1 MOL1         0.0790
      15    C6      20.171793   20.638977   23.815435 C.3        1 MOL1        -0.1760
      16    H10     19.719971   21.285158   24.579125 H          1 MOL1         0.0833
      17    H11     21.142513   21.098326   23.589880 H          1 MOL1         0.0833
      18    C7      19.250821   20.704686   22.566032 C.3        1 MOL1        -0.1684
      19    H12     18.749895   21.682125   22.572886 H          1 MOL1         0.0833
      20    H13     18.433651   19.978262   22.652358 H          1 MOL1         0.0833
      21    C8      19.957582   20.573581   21.190838 C.3        1 MOL1        -0.1684
      22    H14     20.535702   21.487421   20.997809 H          1 MOL1         0.0833
      23    H15     19.181136   20.542585   20.414389 H          1 MOL1         0.0833
      24    O1      19.155207   18.541690   24.622686 O.3        1 MOL1        -0.5508
      25    H16     19.392406   17.639870   24.917538 H          1 MOL1         0.3780
@<TRIPOS>BOND
    1     1     2    1
    2     1     3    1
    3     1     4    1
    4     4     5    1
    5     4     6    1
    6     4     7    1
    7     7     8    1
    8     7     9    1
    9     7    10    1
   10    10    11    1
   11    10    12    1
   12    10    13    1
   13    13    14    1
   14    13    15    1
   15    15    16    1
   16    15    17    1
   17    15    18    1
   18    18    19    1
   19    18    20    1
   20     1    21    1
   21    18    21    1
   22    21    22    1
   23    21    23    1
   24    13    24    1
   25    24    25    1
@<TRIPOS>SUBSTRUCTURE
       1 MOL1            1 RESIDUE      1      MOL     
@<SCITEGIC>MOL_PROPERTY
VM2 Rank
SciTegic.value.IntegerValue
90

@<SCITEGIC>MOL_PROPERTY
Conf_Id
SciTegic.value.IntegerValue
991

@<SCITEGIC>MOL_PROPERTY
Probability
SciTegic.value.DoubleValue
0.01

@<SCITEGIC>MOL_PROPERTY
Sum Probability
SciTegic.value.DoubleValue
99.90

@<SCITEGIC>MOL_PROPERTY
Delta G
SciTegic.value.DoubleValue
3.595

@<SCITEGIC>MOL_PROPERTY
G
SciTegic.value.DoubleValue
65.671

@<SCITEGIC>MOL_PROPERTY
E
SciTegic.value.DoubleValue
33.286

@<SCITEGIC>MOL_PROPERTY
-TS
SciTegic.value.DoubleValue
32.385

@<SCITEGIC>MOL_PROPERTY
U+W
SciTegic.value.DoubleValue
12.719

@<SCITEGIC>MOL_PROPERTY
U
SciTegic.value.DoubleValue
14.604

@<SCITEGIC>MOL_PROPERTY
W
SciTegic.value.DoubleValue
-1.886

@<SCITEGIC>MOL_PROPERTY
W(PB)
SciTegic.value.DoubleValue
-4.020

@<SCITEGIC>MOL_PROPERTY
W(SA)
SciTegic.value.DoubleValue
2.135

@<SCITEGIC>MOL_PROPERTY
Valence
SciTegic.value.DoubleValue
18.883

@<SCITEGIC>MOL_PROPERTY
Coulomb
SciTegic.value.DoubleValue
-7.234

@<SCITEGIC>MOL_PROPERTY
VdW
SciTegic.value.DoubleValue
2.956

@<SCITEGIC>MOL_PROPERTY
VdW6
SciTegic.value.DoubleValue
-13.441

@<SCITEGIC>MOL_PROPERTY
VdW12
SciTegic.value.DoubleValue
16.397

@<SCITEGIC>MOL_PROPERTY
Bond
SciTegic.value.DoubleValue
0.515

@<SCITEGIC>MOL_PROPERTY
Angle
SciTegic.value.DoubleValue
6.286

@<SCITEGIC>MOL_PROPERTY
Pdih
SciTegic.value.DoubleValue
12.082

@<SCITEGIC>MOL_PROPERTY
Idih
SciTegic.value.DoubleValue
0.000

@<SCITEGIC>MOL_PROPERTY
Tether
SciTegic.value.DoubleValue
0.000

@<TRIPOS>MOLECULE
guest-s17_vm2.mol2 : vm2 ligand conformer 91
          25          25           1
SMALL
USER_CHARGES
 
@<TRIPOS>ATOM
       1    C1      20.129612   19.131993   20.677912 C.3        1 MOL1        -0.1684
       2    H1      19.120539   19.064774   20.248918 H          1 MOL1         0.0833
       3    H2      20.819423   19.041795   19.827666 H          1 MOL1         0.0833
       4    C2      20.343003   17.916323   21.611983 C.3        1 MOL1        -0.1684
       5    H3      19.433084   17.723496   22.187559 H          1 MOL1         0.0833
       6    H4      20.459286   17.024781   20.980618 H          1 MOL1         0.0833
       7    C3      21.577205   18.024811   22.540702 C.3        1 MOL1        -0.1684
       8    H5      22.204473   18.882477   22.272758 H          1 MOL1         0.0833
       9    H6      22.217002   17.149304   22.365028 H          1 MOL1         0.0833
      10    C4      21.244812   18.068394   24.054562 C.3        1 MOL1        -0.1760
      11    H7      20.882648   17.079768   24.366869 H          1 MOL1         0.0833
      12    H8      22.189596   18.213396   24.594303 H          1 MOL1         0.0833
      13    C5      20.242786   19.139399   24.563428 C.3        1 MOL1         0.1219
      14    H9      20.476133   19.269163   25.630128 H          1 MOL1         0.0790
      15    C6      20.344156   20.548135   23.922033 C.3        1 MOL1        -0.1760
      16    H10     19.960841   21.250001   24.674307 H          1 MOL1         0.0833
      17    H11     21.399397   20.821155   23.794352 H          1 MOL1         0.0833
      18    C7      19.549203   20.820957   22.607510 C.3        1 MOL1        -0.1684
      19    H12     19.317390   21.894930   22.606422 H          1 MOL1         0.0833
      20    H13     18.569979   20.326674   22.598166 H          1 MOL1         0.0833
      21    C8      20.321453   20.541626   21.295391 C.3        1 MOL1        -0.1684
      22    H14     19.981802   21.267372   20.543679 H          1 MOL1         0.0833
      23    H15     21.387552   20.762615   21.432418 H          1 MOL1         0.0833
      24    O1      18.911770   18.651361   24.486479 O.3        1 MOL1        -0.5508
      25    H16     18.699152   18.652772   23.532624 H          1 MOL1         0.3780
@<TRIPOS>BOND
    1     1     2    1
    2     1     3    1
    3     1     4    1
    4     4     5    1
    5     4     6    1
    6     4     7    1
    7     7     8    1
    8     7     9    1
    9     7    10    1
   10    10    11    1
   11    10    12    1
   12    10    13    1
   13    13    14    1
   14    13    15    1
   15    15    16    1
   16    15    17    1
   17    15    18    1
   18    18    19    1
   19    18    20    1
   20     1    21    1
   21    18    21    1
   22    21    22    1
   23    21    23    1
   24    13    24    1
   25    24    25    1
@<TRIPOS>SUBSTRUCTURE
       1 MOL1            1 RESIDUE      1      MOL     
@<SCITEGIC>MOL_PROPERTY
VM2 Rank
SciTegic.value.IntegerValue
91

@<SCITEGIC>MOL_PROPERTY
Conf_Id
SciTegic.value.IntegerValue
438

@<SCITEGIC>MOL_PROPERTY
Probability
SciTegic.value.DoubleValue
0.01

@<SCITEGIC>MOL_PROPERTY
Sum Probability
SciTegic.value.DoubleValue
99.92

@<SCITEGIC>MOL_PROPERTY
Delta G
SciTegic.value.DoubleValue
3.596

@<SCITEGIC>MOL_PROPERTY
G
SciTegic.value.DoubleValue
65.672

@<SCITEGIC>MOL_PROPERTY
E
SciTegic.value.DoubleValue
33.221

@<SCITEGIC>MOL_PROPERTY
-TS
SciTegic.value.DoubleValue
32.451

@<SCITEGIC>MOL_PROPERTY
U+W
SciTegic.value.DoubleValue
12.653

@<SCITEGIC>MOL_PROPERTY
U
SciTegic.value.DoubleValue
13.786

@<SCITEGIC>MOL_PROPERTY
W
SciTegic.value.DoubleValue
-1.133

@<SCITEGIC>MOL_PROPERTY
W(PB)
SciTegic.value.DoubleValue
-3.259

@<SCITEGIC>MOL_PROPERTY
W(SA)
SciTegic.value.DoubleValue
2.127

@<SCITEGIC>MOL_PROPERTY
Valence
SciTegic.value.DoubleValue
20.491

@<SCITEGIC>MOL_PROPERTY
Coulomb
SciTegic.value.DoubleValue
-9.471

@<SCITEGIC>MOL_PROPERTY
VdW
SciTegic.value.DoubleValue
2.766

@<SCITEGIC>MOL_PROPERTY
VdW6
SciTegic.value.DoubleValue
-13.485

@<SCITEGIC>MOL_PROPERTY
VdW12
SciTegic.value.DoubleValue
16.251

@<SCITEGIC>MOL_PROPERTY
Bond
SciTegic.value.DoubleValue
0.508

@<SCITEGIC>MOL_PROPERTY
Angle
SciTegic.value.DoubleValue
6.902

@<SCITEGIC>MOL_PROPERTY
Pdih
SciTegic.value.DoubleValue
13.080

@<SCITEGIC>MOL_PROPERTY
Idih
SciTegic.value.DoubleValue
0.000

@<SCITEGIC>MOL_PROPERTY
Tether
SciTegic.value.DoubleValue
0.000

@<TRIPOS>MOLECULE
guest-s17_vm2.mol2 : vm2 ligand conformer 92
          25          25           1
SMALL
USER_CHARGES
 
@<TRIPOS>ATOM
       1    C1      20.896591   19.360407   20.999313 C.3        1 MOL1        -0.1684
       2    H1      21.117902   19.267711   19.927396 H          1 MOL1         0.0833
       3    H2      21.865828   19.567165   21.466725 H          1 MOL1         0.0833
       4    C2      20.309114   18.017885   21.502503 C.3        1 MOL1        -0.1684
       5    H3      19.247392   18.122638   21.753858 H          1 MOL1         0.0833
       6    H4      20.329187   17.292991   20.677580 H          1 MOL1         0.0833
       7    C3      21.062142   17.396771   22.704159 C.3        1 MOL1        -0.1684
       8    H5      21.972198   16.909735   22.328921 H          1 MOL1         0.0833
       9    H6      20.442303   16.589786   23.118223 H          1 MOL1         0.0833
      10    C4      21.475817   18.354277   23.858684 C.3        1 MOL1        -0.1760
      11    H7      21.883441   17.727347   24.662097 H          1 MOL1         0.0833
      12    H8      22.319060   18.980891   23.545511 H          1 MOL1         0.0833
      13    C5      20.384744   19.253968   24.493464 C.3        1 MOL1         0.1219
      14    H9      20.756079   19.487822   25.501796 H          1 MOL1         0.0790
      15    C6      20.176840   20.635872   23.810119 C.3        1 MOL1        -0.1760
      16    H10     19.739806   21.294901   24.571564 H          1 MOL1         0.0833
      17    H11     21.149571   21.085248   23.572592 H          1 MOL1         0.0833
      18    C7      19.248833   20.699541   22.565941 C.3        1 MOL1        -0.1684
      19    H12     18.744047   21.675112   22.575128 H          1 MOL1         0.0833
      20    H13     18.435465   19.968848   22.649123 H          1 MOL1         0.0833
      21    C8      19.955058   20.574198   21.190194 C.3        1 MOL1        -0.1684
      22    H14     19.178972   20.539406   20.413521 H          1 MOL1         0.0833
      23    H15     20.528728   21.491002   20.997826 H          1 MOL1         0.0833
      24    O1      19.154861   18.550081   24.635623 O.3        1 MOL1        -0.5508
      25    H16     18.504943   19.195242   24.979631 H          1 MOL1         0.3780
@<TRIPOS>BOND
    1     1     2    1
    2     1     3    1
    3     1     4    1
    4     4     5    1
    5     4     6    1
    6     4     7    1
    7     7     8    1
    8     7     9    1
    9     7    10    1
   10    10    11    1
   11    10    12    1
   12    10    13    1
   13    13    14    1
   14    13    15    1
   15    15    16    1
   16    15    17    1
   17    15    18    1
   18    18    19    1
   19    18    20    1
   20     1    21    1
   21    18    21    1
   22    21    22    1
   23    21    23    1
   24    13    24    1
   25    24    25    1
@<TRIPOS>SUBSTRUCTURE
       1 MOL1            1 RESIDUE      1      MOL     
@<SCITEGIC>MOL_PROPERTY
VM2 Rank
SciTegic.value.IntegerValue
92

@<SCITEGIC>MOL_PROPERTY
Conf_Id
SciTegic.value.IntegerValue
1269

@<SCITEGIC>MOL_PROPERTY
Probability
SciTegic.value.DoubleValue
0.01

@<SCITEGIC>MOL_PROPERTY
Sum Probability
SciTegic.value.DoubleValue
99.92

@<SCITEGIC>MOL_PROPERTY
Delta G
SciTegic.value.DoubleValue
3.875

@<SCITEGIC>MOL_PROPERTY
G
SciTegic.value.DoubleValue
65.950

@<SCITEGIC>MOL_PROPERTY
E
SciTegic.value.DoubleValue
33.502

@<SCITEGIC>MOL_PROPERTY
-TS
SciTegic.value.DoubleValue
32.448

@<SCITEGIC>MOL_PROPERTY
U+W
SciTegic.value.DoubleValue
12.934

@<SCITEGIC>MOL_PROPERTY
U
SciTegic.value.DoubleValue
14.863

@<SCITEGIC>MOL_PROPERTY
W
SciTegic.value.DoubleValue
-1.929

@<SCITEGIC>MOL_PROPERTY
W(PB)
SciTegic.value.DoubleValue
-4.063

@<SCITEGIC>MOL_PROPERTY
W(SA)
SciTegic.value.DoubleValue
2.134

@<SCITEGIC>MOL_PROPERTY
Valence
SciTegic.value.DoubleValue
18.821

@<SCITEGIC>MOL_PROPERTY
Coulomb
SciTegic.value.DoubleValue
-6.904

@<SCITEGIC>MOL_PROPERTY
VdW
SciTegic.value.DoubleValue
2.946

@<SCITEGIC>MOL_PROPERTY
VdW6
SciTegic.value.DoubleValue
-13.395

@<SCITEGIC>MOL_PROPERTY
VdW12
SciTegic.value.DoubleValue
16.341

@<SCITEGIC>MOL_PROPERTY
Bond
SciTegic.value.DoubleValue
0.514

@<SCITEGIC>MOL_PROPERTY
Angle
SciTegic.value.DoubleValue
6.249

@<SCITEGIC>MOL_PROPERTY
Pdih
SciTegic.value.DoubleValue
12.058

@<SCITEGIC>MOL_PROPERTY
Idih
SciTegic.value.DoubleValue
0.000

@<SCITEGIC>MOL_PROPERTY
Tether
SciTegic.value.DoubleValue
0.000

@<TRIPOS>MOLECULE
guest-s17_vm2.mol2 : vm2 ligand conformer 93
          25          25           1
SMALL
USER_CHARGES
 
@<TRIPOS>ATOM
       1    C1      20.543709   19.202711   20.884796 C.3        1 MOL1        -0.1684
       2    H1      20.289988   19.084610   19.822232 H          1 MOL1         0.0833
       3    H2      21.578346   19.570915   20.895083 H          1 MOL1         0.0833
       4    C2      20.455990   17.796578   21.522973 C.3        1 MOL1        -0.1684
       5    H3      19.410983   17.548203   21.743135 H          1 MOL1         0.0833
       6    H4      20.748561   17.064596   20.757433 H          1 MOL1         0.0833
       7    C3      21.367357   17.539603   22.753962 C.3        1 MOL1        -0.1684
       8    H5      22.379855   17.323866   22.386391 H          1 MOL1         0.0833
       9    H6      21.032958   16.614489   23.243609 H          1 MOL1         0.0833
      10    C4      21.493861   18.658303   23.827238 C.3        1 MOL1        -0.1760
      11    H7      22.096651   18.248889   24.648128 H          1 MOL1         0.0833
      12    H8      22.105720   19.475811   23.431285 H          1 MOL1         0.0833
      13    C5      20.186442   19.213506   24.455784 C.3        1 MOL1         0.1219
      14    H9      20.333758   19.226217   25.545373 H          1 MOL1         0.0790
      15    C6      19.836832   20.668464   24.054195 C.3        1 MOL1        -0.1760
      16    H10     18.773194   20.842840   24.265480 H          1 MOL1         0.0833
      17    H11     20.378107   21.339541   24.733682 H          1 MOL1         0.0833
      18    C7      20.143512   21.131472   22.603517 C.3        1 MOL1        -0.1684
      19    H12     21.222831   21.269392   22.460920 H          1 MOL1         0.0833
      20    H13     19.719979   22.139700   22.497717 H          1 MOL1         0.0833
      21    C8      19.562597   20.256445   21.466520 C.3        1 MOL1        -0.1684
      22    H14     18.609189   19.801099   21.764809 H          1 MOL1         0.0833
      23    H15     19.308231   20.938018   20.642998 H          1 MOL1         0.0833
      24    O1      19.073699   18.375919   24.191014 O.3        1 MOL1        -0.5508
      25    H16     19.045729   18.327524   23.215763 H          1 MOL1         0.3780
@<TRIPOS>BOND
    1     1     2    1
    2     1     3    1
    3     1     4    1
    4     4     5    1
    5     4     6    1
    6     4     7    1
    7     7     8    1
    8     7     9    1
    9     7    10    1
   10    10    11    1
   11    10    12    1
   12    10    13    1
   13    13    14    1
   14    13    15    1
   15    15    16    1
   16    15    17    1
   17    15    18    1
   18    18    19    1
   19    18    20    1
   20     1    21    1
   21    18    21    1
   22    21    22    1
   23    21    23    1
   24    13    24    1
   25    24    25    1
@<TRIPOS>SUBSTRUCTURE
       1 MOL1            1 RESIDUE      1      MOL     
@<SCITEGIC>MOL_PROPERTY
VM2 Rank
SciTegic.value.IntegerValue
93

@<SCITEGIC>MOL_PROPERTY
Conf_Id
SciTegic.value.IntegerValue
608

@<SCITEGIC>MOL_PROPERTY
Probability
SciTegic.value.DoubleValue
0.01

@<SCITEGIC>MOL_PROPERTY
Sum Probability
SciTegic.value.DoubleValue
99.93

@<SCITEGIC>MOL_PROPERTY
Delta G
SciTegic.value.DoubleValue
3.933

@<SCITEGIC>MOL_PROPERTY
G
SciTegic.value.DoubleValue
66.009

@<SCITEGIC>MOL_PROPERTY
E
SciTegic.value.DoubleValue
33.364

@<SCITEGIC>MOL_PROPERTY
-TS
SciTegic.value.DoubleValue
32.644

@<SCITEGIC>MOL_PROPERTY
U+W
SciTegic.value.DoubleValue
12.797

@<SCITEGIC>MOL_PROPERTY
U
SciTegic.value.DoubleValue
13.787

@<SCITEGIC>MOL_PROPERTY
W
SciTegic.value.DoubleValue
-0.990

@<SCITEGIC>MOL_PROPERTY
W(PB)
SciTegic.value.DoubleValue
-3.084

@<SCITEGIC>MOL_PROPERTY
W(SA)
SciTegic.value.DoubleValue
2.095

@<SCITEGIC>MOL_PROPERTY
Valence
SciTegic.value.DoubleValue
20.983

@<SCITEGIC>MOL_PROPERTY
Coulomb
SciTegic.value.DoubleValue
-10.046

@<SCITEGIC>MOL_PROPERTY
VdW
SciTegic.value.DoubleValue
2.849

@<SCITEGIC>MOL_PROPERTY
VdW6
SciTegic.value.DoubleValue
-14.096

@<SCITEGIC>MOL_PROPERTY
VdW12
SciTegic.value.DoubleValue
16.945

@<SCITEGIC>MOL_PROPERTY
Bond
SciTegic.value.DoubleValue
0.519

@<SCITEGIC>MOL_PROPERTY
Angle
SciTegic.value.DoubleValue
7.297

@<SCITEGIC>MOL_PROPERTY
Pdih
SciTegic.value.DoubleValue
13.167

@<SCITEGIC>MOL_PROPERTY
Idih
SciTegic.value.DoubleValue
0.000

@<SCITEGIC>MOL_PROPERTY
Tether
SciTegic.value.DoubleValue
0.000

@<TRIPOS>MOLECULE
guest-s17_vm2.mol2 : vm2 ligand conformer 94
          25          25           1
SMALL
USER_CHARGES
 
@<TRIPOS>ATOM
       1    C1      20.512265   19.371899   20.888152 C.3        1 MOL1        -0.1684
       2    H1      20.272801   19.269900   19.820623 H          1 MOL1         0.0833
       3    H2      21.502494   19.845959   20.917610 H          1 MOL1         0.0833
       4    C2      20.554804   17.936156   21.478201 C.3        1 MOL1        -0.1684
       5    H3      19.553355   17.582704   21.756546 H          1 MOL1         0.0833
       6    H4      20.876522   17.271035   20.664848 H          1 MOL1         0.0833
       7    C3      21.559853   17.736834   22.638388 C.3        1 MOL1        -0.1684
       8    H5      22.421657   18.404218   22.511183 H          1 MOL1         0.0833
       9    H6      21.978262   16.725084   22.546775 H          1 MOL1         0.0833
      10    C4      20.983793   17.853124   24.076277 C.3        1 MOL1        -0.1760
      11    H7      20.352867   16.977041   24.278230 H          1 MOL1         0.0833
      12    H8      21.826271   17.767122   24.774746 H          1 MOL1         0.0833
      13    C5      20.190217   19.128965   24.454270 C.3        1 MOL1         0.1219
      14    H9      20.279376   19.229933   25.545564 H          1 MOL1         0.0790
      15    C6      20.732140   20.444341   23.830755 C.3        1 MOL1        -0.1760
      16    H10     20.849002   21.164591   24.650767 H          1 MOL1         0.0833
      17    H11     21.751643   20.299774   23.457687 H          1 MOL1         0.0833
      18    C7      19.873383   21.138035   22.734969 C.3        1 MOL1        -0.1684
      19    H12     20.442337   22.006222   22.375325 H          1 MOL1         0.0833
      20    H13     18.971198   21.555733   23.202950 H          1 MOL1         0.0833
      21    C8      19.439807   20.304406   21.498428 C.3        1 MOL1        -0.1684
      22    H14     18.522183   19.739665   21.701490 H          1 MOL1         0.0833
      23    H15     19.143905   21.024135   20.722621 H          1 MOL1         0.0833
      24    O1      18.817739   18.929240   24.160560 O.3        1 MOL1        -0.5508
      25    H16     18.784923   18.938738   23.184306 H          1 MOL1         0.3780
@<TRIPOS>BOND
    1     1     2    1
    2     1     3    1
    3     1     4    1
    4     4     5    1
    5     4     6    1
    6     4     7    1
    7     7     8    1
    8     7     9    1
    9     7    10    1
   10    10    11    1
   11    10    12    1
   12    10    13    1
   13    13    14    1
   14    13    15    1
   15    15    16    1
   16    15    17    1
   17    15    18    1
   18    18    19    1
   19    18    20    1
   20     1    21    1
   21    18    21    1
   22    21    22    1
   23    21    23    1
   24    13    24    1
   25    24    25    1
@<TRIPOS>SUBSTRUCTURE
       1 MOL1            1 RESIDUE      1      MOL     
@<SCITEGIC>MOL_PROPERTY
VM2 Rank
SciTegic.value.IntegerValue
94

@<SCITEGIC>MOL_PROPERTY
Conf_Id
SciTegic.value.IntegerValue
1558

@<SCITEGIC>MOL_PROPERTY
Probability
SciTegic.value.DoubleValue
0.01

@<SCITEGIC>MOL_PROPERTY
Sum Probability
SciTegic.value.DoubleValue
99.93

@<SCITEGIC>MOL_PROPERTY
Delta G
SciTegic.value.DoubleValue
3.963

@<SCITEGIC>MOL_PROPERTY
G
SciTegic.value.DoubleValue
66.038

@<SCITEGIC>MOL_PROPERTY
E
SciTegic.value.DoubleValue
33.394

@<SCITEGIC>MOL_PROPERTY
-TS
SciTegic.value.DoubleValue
32.644

@<SCITEGIC>MOL_PROPERTY
U+W
SciTegic.value.DoubleValue
12.827

@<SCITEGIC>MOL_PROPERTY
U
SciTegic.value.DoubleValue
13.787

@<SCITEGIC>MOL_PROPERTY
W
SciTegic.value.DoubleValue
-0.960

@<SCITEGIC>MOL_PROPERTY
W(PB)
SciTegic.value.DoubleValue
-3.077

@<SCITEGIC>MOL_PROPERTY
W(SA)
SciTegic.value.DoubleValue
2.117

@<SCITEGIC>MOL_PROPERTY
Valence
SciTegic.value.DoubleValue
20.983

@<SCITEGIC>MOL_PROPERTY
Coulomb
SciTegic.value.DoubleValue
-10.046

@<SCITEGIC>MOL_PROPERTY
VdW
SciTegic.value.DoubleValue
2.849

@<SCITEGIC>MOL_PROPERTY
VdW6
SciTegic.value.DoubleValue
-14.095

@<SCITEGIC>MOL_PROPERTY
VdW12
SciTegic.value.DoubleValue
16.945

@<SCITEGIC>MOL_PROPERTY
Bond
SciTegic.value.DoubleValue
0.518

@<SCITEGIC>MOL_PROPERTY
Angle
SciTegic.value.DoubleValue
7.297

@<SCITEGIC>MOL_PROPERTY
Pdih
SciTegic.value.DoubleValue
13.167

@<SCITEGIC>MOL_PROPERTY
Idih
SciTegic.value.DoubleValue
0.000

@<SCITEGIC>MOL_PROPERTY
Tether
SciTegic.value.DoubleValue
0.000

@<TRIPOS>MOLECULE
guest-s17_vm2.mol2 : vm2 ligand conformer 95
          25          25           1
SMALL
USER_CHARGES
 
@<TRIPOS>ATOM
       1    C1      20.086889   19.098069   20.758233 C.3        1 MOL1        -0.1684
       2    H1      19.463171   18.260157   20.418734 H          1 MOL1         0.0833
       3    H2      20.329909   19.667936   19.851046 H          1 MOL1         0.0833
       4    C2      21.424242   18.544033   21.315114 C.3        1 MOL1        -0.1684
       5    H3      21.928054   18.012960   20.496006 H          1 MOL1         0.0833
       6    H4      22.099568   19.377570   21.531000 H          1 MOL1         0.0833
       7    C3      21.351546   17.560155   22.518968 C.3        1 MOL1        -0.1684
       8    H5      22.337766   17.516873   23.000572 H          1 MOL1         0.0833
       9    H6      21.181057   16.554470   22.111133 H          1 MOL1         0.0833
      10    C4      20.264355   17.799257   23.601981 C.3        1 MOL1        -0.1760
      11    H7      19.273866   17.700245   23.148432 H          1 MOL1         0.0833
      12    H8      20.312856   16.955929   24.302980 H          1 MOL1         0.0833
      13    C5      20.366017   19.090736   24.460868 C.3        1 MOL1         0.1219
      14    H9      21.085688   18.878131   25.264395 H          1 MOL1         0.0790
      15    C6      20.856377   20.385611   23.766474 C.3        1 MOL1        -0.1760
      16    H10     20.955931   21.155297   24.543206 H          1 MOL1         0.0833
      17    H11     21.885796   20.235548   23.429619 H          1 MOL1         0.0833
      18    C7      19.985323   20.991819   22.623018 C.3        1 MOL1        -0.1684
      19    H12     20.612363   21.664858   22.022837 H          1 MOL1         0.0833
      20    H13     19.230188   21.638928   23.089762 H          1 MOL1         0.0833
      21    C8      19.232027   20.022228   21.673114 C.3        1 MOL1        -0.1684
      22    H14     18.506748   19.434570   22.243231 H          1 MOL1         0.0833
      23    H15     18.601434   20.632559   21.012198 H          1 MOL1         0.0833
      24    O1      19.097225   19.351092   25.042230 O.3        1 MOL1        -0.5508
      25    H16     18.557651   19.731950   24.320394 H          1 MOL1         0.3780
@<TRIPOS>BOND
    1     1     2    1
    2     1     3    1
    3     1     4    1
    4     4     5    1
    5     4     6    1
    6     4     7    1
    7     7     8    1
    8     7     9    1
    9     7    10    1
   10    10    11    1
   11    10    12    1
   12    10    13    1
   13    13    14    1
   14    13    15    1
   15    15    16    1
   16    15    17    1
   17    15    18    1
   18    18    19    1
   19    18    20    1
   20     1    21    1
   21    18    21    1
   22    21    22    1
   23    21    23    1
   24    13    24    1
   25    24    25    1
@<TRIPOS>SUBSTRUCTURE
       1 MOL1            1 RESIDUE      1      MOL     
@<SCITEGIC>MOL_PROPERTY
VM2 Rank
SciTegic.value.IntegerValue
95

@<SCITEGIC>MOL_PROPERTY
Conf_Id
SciTegic.value.IntegerValue
1190

@<SCITEGIC>MOL_PROPERTY
Probability
SciTegic.value.DoubleValue
0.01

@<SCITEGIC>MOL_PROPERTY
Sum Probability
SciTegic.value.DoubleValue
99.94

@<SCITEGIC>MOL_PROPERTY
Delta G
SciTegic.value.DoubleValue
4.003

@<SCITEGIC>MOL_PROPERTY
G
SciTegic.value.DoubleValue
66.079

@<SCITEGIC>MOL_PROPERTY
E
SciTegic.value.DoubleValue
33.265

@<SCITEGIC>MOL_PROPERTY
-TS
SciTegic.value.DoubleValue
32.814

@<SCITEGIC>MOL_PROPERTY
U+W
SciTegic.value.DoubleValue
12.697

@<SCITEGIC>MOL_PROPERTY
U
SciTegic.value.DoubleValue
14.050

@<SCITEGIC>MOL_PROPERTY
W
SciTegic.value.DoubleValue
-1.353

@<SCITEGIC>MOL_PROPERTY
W(PB)
SciTegic.value.DoubleValue
-3.459

@<SCITEGIC>MOL_PROPERTY
W(SA)
SciTegic.value.DoubleValue
2.106

@<SCITEGIC>MOL_PROPERTY
Valence
SciTegic.value.DoubleValue
19.391

@<SCITEGIC>MOL_PROPERTY
Coulomb
SciTegic.value.DoubleValue
-9.106

@<SCITEGIC>MOL_PROPERTY
VdW
SciTegic.value.DoubleValue
3.765

@<SCITEGIC>MOL_PROPERTY
VdW6
SciTegic.value.DoubleValue
-14.145

@<SCITEGIC>MOL_PROPERTY
VdW12
SciTegic.value.DoubleValue
17.909

@<SCITEGIC>MOL_PROPERTY
Bond
SciTegic.value.DoubleValue
0.723

@<SCITEGIC>MOL_PROPERTY
Angle
SciTegic.value.DoubleValue
9.667

@<SCITEGIC>MOL_PROPERTY
Pdih
SciTegic.value.DoubleValue
9.001

@<SCITEGIC>MOL_PROPERTY
Idih
SciTegic.value.DoubleValue
0.000

@<SCITEGIC>MOL_PROPERTY
Tether
SciTegic.value.DoubleValue
0.000

@<TRIPOS>MOLECULE
guest-s17_vm2.mol2 : vm2 ligand conformer 96
          25          25           1
SMALL
USER_CHARGES
 
@<TRIPOS>ATOM
       1    C1      20.109987   19.109675   20.755536 C.3        1 MOL1        -0.1684
       2    H1      19.077787   19.224572   20.398128 H          1 MOL1         0.0833
       3    H2      20.706923   18.890971   19.859639 H          1 MOL1         0.0833
       4    C2      20.185093   17.860728   21.680932 C.3        1 MOL1        -0.1684
       5    H3      19.251096   17.737069   22.236599 H          1 MOL1         0.0833
       6    H4      20.210490   16.978463   21.026772 H          1 MOL1         0.0833
       7    C3      21.391844   17.754920   22.651724 C.3        1 MOL1        -0.1684
       8    H5      22.321516   17.748287   22.066876 H          1 MOL1         0.0833
       9    H6      21.340307   16.764845   23.124930 H          1 MOL1         0.0833
      10    C4      21.525812   18.813424   23.789851 C.3        1 MOL1        -0.1760
      11    H7      22.142712   18.365740   24.580201 H          1 MOL1         0.0833
      12    H8      22.125428   19.664969   23.456649 H          1 MOL1         0.0833
      13    C5      20.234158   19.345509   24.459072 C.3        1 MOL1         0.1219
      14    H9      20.557546   20.021994   25.263170 H          1 MOL1         0.0790
      15    C6      19.236382   20.147696   23.577665 C.3        1 MOL1        -0.1760
      16    H10     18.494675   19.489036   23.116560 H          1 MOL1         0.0833
      17    H11     18.642467   20.764590   24.264439 H          1 MOL1         0.0833
      18    C7      19.822874   21.096804   22.497253 C.3        1 MOL1        -0.1684
      19    H12     20.457374   21.849798   22.983932 H          1 MOL1         0.0833
      20    H13     18.979159   21.656720   22.071296 H          1 MOL1         0.0833
      21    C8      20.610492   20.468619   21.310829 C.3        1 MOL1        -0.1684
      22    H14     20.580802   21.193346   20.485789 H          1 MOL1         0.0833
      23    H15     21.676796   20.393473   21.544933 H          1 MOL1         0.0833
      24    O1      19.547357   18.245625   25.037139 O.3        1 MOL1        -0.5508
      25    H16     19.468327   17.586294   24.318615 H          1 MOL1         0.3780
@<TRIPOS>BOND
    1     1     2    1
    2     1     3    1
    3     1     4    1
    4     4     5    1
    5     4     6    1
    6     4     7    1
    7     7     8    1
    8     7     9    1
    9     7    10    1
   10    10    11    1
   11    10    12    1
   12    10    13    1
   13    13    14    1
   14    13    15    1
   15    15    16    1
   16    15    17    1
   17    15    18    1
   18    18    19    1
   19    18    20    1
   20     1    21    1
   21    18    21    1
   22    21    22    1
   23    21    23    1
   24    13    24    1
   25    24    25    1
@<TRIPOS>SUBSTRUCTURE
       1 MOL1            1 RESIDUE      1      MOL     
@<SCITEGIC>MOL_PROPERTY
VM2 Rank
SciTegic.value.IntegerValue
96

@<SCITEGIC>MOL_PROPERTY
Conf_Id
SciTegic.value.IntegerValue
2005

@<SCITEGIC>MOL_PROPERTY
Probability
SciTegic.value.DoubleValue
0.01

@<SCITEGIC>MOL_PROPERTY
Sum Probability
SciTegic.value.DoubleValue
99.95

@<SCITEGIC>MOL_PROPERTY
Delta G
SciTegic.value.DoubleValue
4.044

@<SCITEGIC>MOL_PROPERTY
G
SciTegic.value.DoubleValue
66.120

@<SCITEGIC>MOL_PROPERTY
E
SciTegic.value.DoubleValue
33.306

@<SCITEGIC>MOL_PROPERTY
-TS
SciTegic.value.DoubleValue
32.814

@<SCITEGIC>MOL_PROPERTY
U+W
SciTegic.value.DoubleValue
12.738

@<SCITEGIC>MOL_PROPERTY
U
SciTegic.value.DoubleValue
14.050

@<SCITEGIC>MOL_PROPERTY
W
SciTegic.value.DoubleValue
-1.312

@<SCITEGIC>MOL_PROPERTY
W(PB)
SciTegic.value.DoubleValue
-3.425

@<SCITEGIC>MOL_PROPERTY
W(SA)
SciTegic.value.DoubleValue
2.113

@<SCITEGIC>MOL_PROPERTY
Valence
SciTegic.value.DoubleValue
19.391

@<SCITEGIC>MOL_PROPERTY
Coulomb
SciTegic.value.DoubleValue
-9.106

@<SCITEGIC>MOL_PROPERTY
VdW
SciTegic.value.DoubleValue
3.765

@<SCITEGIC>MOL_PROPERTY
VdW6
SciTegic.value.DoubleValue
-14.145

@<SCITEGIC>MOL_PROPERTY
VdW12
SciTegic.value.DoubleValue
17.910

@<SCITEGIC>MOL_PROPERTY
Bond
SciTegic.value.DoubleValue
0.723

@<SCITEGIC>MOL_PROPERTY
Angle
SciTegic.value.DoubleValue
9.667

@<SCITEGIC>MOL_PROPERTY
Pdih
SciTegic.value.DoubleValue
9.002

@<SCITEGIC>MOL_PROPERTY
Idih
SciTegic.value.DoubleValue
0.000

@<SCITEGIC>MOL_PROPERTY
Tether
SciTegic.value.DoubleValue
0.000

@<TRIPOS>MOLECULE
guest-s17_vm2.mol2 : vm2 ligand conformer 97
          25          25           1
SMALL
USER_CHARGES
 
@<TRIPOS>ATOM
       1    C1      19.610834   18.885584   21.197764 C.3        1 MOL1        -0.1684
       2    H1      18.900446   18.471105   21.921544 H          1 MOL1         0.0833
       3    H2      19.188167   18.637632   20.214742 H          1 MOL1         0.0833
       4    C2      20.986938   18.188258   21.329069 C.3        1 MOL1        -0.1684
       5    H3      21.805742   18.874055   21.076092 H          1 MOL1         0.0833
       6    H4      21.030007   17.394015   20.571449 H          1 MOL1         0.0833
       7    C3      21.234347   17.520146   22.704895 C.3        1 MOL1        -0.1684
       8    H5      22.131828   16.894620   22.607509 H          1 MOL1         0.0833
       9    H6      20.417230   16.819867   22.924886 H          1 MOL1         0.0833
      10    C4      21.458393   18.466442   23.919866 C.3        1 MOL1        -0.1760
      11    H7      21.822616   17.835991   24.741194 H          1 MOL1         0.0833
      12    H8      22.284547   19.157530   23.716505 H          1 MOL1         0.0833
      13    C5      20.230330   19.239177   24.479608 C.3        1 MOL1         0.1219
      14    H9      20.451463   19.405483   25.544006 H          1 MOL1         0.0790
      15    C6      19.964055   20.660228   23.905021 C.3        1 MOL1        -0.1760
      16    H10     18.893067   20.892202   23.968936 H          1 MOL1         0.0833
      17    H11     20.448553   21.367233   24.591105 H          1 MOL1         0.0833
      18    C7      20.476859   21.008833   22.482542 C.3        1 MOL1        -0.1684
      19    H12     21.537585   20.757213   22.374200 H          1 MOL1         0.0833
      20    H13     20.441819   22.102286   22.383653 H          1 MOL1         0.0833
      21    C8      19.654367   20.426989   21.308630 C.3        1 MOL1        -0.1684
      22    H14     20.072737   20.825588   20.374398 H          1 MOL1         0.0833
      23    H15     18.625539   20.807704   21.363046 H          1 MOL1         0.0833
      24    O1      19.047876   18.447344   24.432605 O.3        1 MOL1        -0.5508
      25    H16     18.333062   18.983751   24.830544 H          1 MOL1         0.3780
@<TRIPOS>BOND
    1     1     2    1
    2     1     3    1
    3     1     4    1
    4     4     5    1
    5     4     6    1
    6     4     7    1
    7     7     8    1
    8     7     9    1
    9     7    10    1
   10    10    11    1
   11    10    12    1
   12    10    13    1
   13    13    14    1
   14    13    15    1
   15    15    16    1
   16    15    17    1
   17    15    18    1
   18    18    19    1
   19    18    20    1
   20     1    21    1
   21    18    21    1
   22    21    22    1
   23    21    23    1
   24    13    24    1
   25    24    25    1
@<TRIPOS>SUBSTRUCTURE
       1 MOL1            1 RESIDUE      1      MOL     
@<SCITEGIC>MOL_PROPERTY
VM2 Rank
SciTegic.value.IntegerValue
97

@<SCITEGIC>MOL_PROPERTY
Conf_Id
SciTegic.value.IntegerValue
570

@<SCITEGIC>MOL_PROPERTY
Probability
SciTegic.value.DoubleValue
0.00

@<SCITEGIC>MOL_PROPERTY
Sum Probability
SciTegic.value.DoubleValue
99.95

@<SCITEGIC>MOL_PROPERTY
Delta G
SciTegic.value.DoubleValue
4.136

@<SCITEGIC>MOL_PROPERTY
G
SciTegic.value.DoubleValue
66.212

@<SCITEGIC>MOL_PROPERTY
E
SciTegic.value.DoubleValue
33.588

@<SCITEGIC>MOL_PROPERTY
-TS
SciTegic.value.DoubleValue
32.623

@<SCITEGIC>MOL_PROPERTY
U+W
SciTegic.value.DoubleValue
13.021

@<SCITEGIC>MOL_PROPERTY
U
SciTegic.value.DoubleValue
14.959

@<SCITEGIC>MOL_PROPERTY
W
SciTegic.value.DoubleValue
-1.938

@<SCITEGIC>MOL_PROPERTY
W(PB)
SciTegic.value.DoubleValue
-4.057

@<SCITEGIC>MOL_PROPERTY
W(SA)
SciTegic.value.DoubleValue
2.119

@<SCITEGIC>MOL_PROPERTY
Valence
SciTegic.value.DoubleValue
18.591

@<SCITEGIC>MOL_PROPERTY
Coulomb
SciTegic.value.DoubleValue
-6.260

@<SCITEGIC>MOL_PROPERTY
VdW
SciTegic.value.DoubleValue
2.627

@<SCITEGIC>MOL_PROPERTY
VdW6
SciTegic.value.DoubleValue
-13.467

@<SCITEGIC>MOL_PROPERTY
VdW12
SciTegic.value.DoubleValue
16.094

@<SCITEGIC>MOL_PROPERTY
Bond
SciTegic.value.DoubleValue
0.508

@<SCITEGIC>MOL_PROPERTY
Angle
SciTegic.value.DoubleValue
7.247

@<SCITEGIC>MOL_PROPERTY
Pdih
SciTegic.value.DoubleValue
10.837

@<SCITEGIC>MOL_PROPERTY
Idih
SciTegic.value.DoubleValue
0.000

@<SCITEGIC>MOL_PROPERTY
Tether
SciTegic.value.DoubleValue
0.000

@<TRIPOS>MOLECULE
guest-s17_vm2.mol2 : vm2 ligand conformer 98
          25          25           1
SMALL
USER_CHARGES
 
@<TRIPOS>ATOM
       1    C1      21.327514   19.720412   21.251920 C.3        1 MOL1        -0.1684
       2    H1      21.894234   19.959326   20.341618 H          1 MOL1         0.0833
       3    H2      21.900242   20.212928   22.044137 H          1 MOL1         0.0833
       4    C2      21.364349   18.172716   21.417967 C.3        1 MOL1        -0.1684
       5    H3      21.341966   17.734188   20.410936 H          1 MOL1         0.0833
       6    H4      22.335708   17.882904   21.841019 H          1 MOL1         0.0833
       7    C3      20.229717   17.494930   22.230285 C.3        1 MOL1        -0.1684
       8    H5      20.359134   16.407864   22.139324 H          1 MOL1         0.0833
       9    H6      19.270837   17.681029   21.736360 H          1 MOL1         0.0833
      10    C4      20.142530   17.820827   23.751238 C.3        1 MOL1        -0.1760
      11    H7      19.130250   17.590824   24.107996 H          1 MOL1         0.0833
      12    H8      20.806463   17.118884   24.272949 H          1 MOL1         0.0833
      13    C5      20.534291   19.243900   24.221610 C.3        1 MOL1         0.1219
      14    H9      21.563231   19.433040   23.898515 H          1 MOL1         0.0790
      15    C6      19.617065   20.415122   23.764999 C.3        1 MOL1        -0.1760
      16    H10     18.789089   20.497893   24.482097 H          1 MOL1         0.0833
      17    H11     20.180761   21.352845   23.851275 H          1 MOL1         0.0833
      18    C7      18.978317   20.344671   22.351654 C.3        1 MOL1        -0.1684
      19    H12     18.287233   21.193326   22.257024 H          1 MOL1         0.0833
      20    H13     18.320349   19.471746   22.295022 H          1 MOL1         0.0833
      21    C8      19.936609   20.396303   21.125948 C.3        1 MOL1        -0.1684
      22    H14     20.115046   21.454877   20.892584 H          1 MOL1         0.0833
      23    H15     19.414813   19.987979   20.249904 H          1 MOL1         0.0833
      24    O1      20.533608   19.234119   25.644378 O.3        1 MOL1        -0.5508
      25    H16     20.841768   20.118596   25.932658 H          1 MOL1         0.3780
@<TRIPOS>BOND
    1     1     2    1
    2     1     3    1
    3     1     4    1
    4     4     5    1
    5     4     6    1
    6     4     7    1
    7     7     8    1
    8     7     9    1
    9     7    10    1
   10    10    11    1
   11    10    12    1
   12    10    13    1
   13    13    14    1
   14    13    15    1
   15    15    16    1
   16    15    17    1
   17    15    18    1
   18    18    19    1
   19    18    20    1
   20     1    21    1
   21    18    21    1
   22    21    22    1
   23    21    23    1
   24    13    24    1
   25    24    25    1
@<TRIPOS>SUBSTRUCTURE
       1 MOL1            1 RESIDUE      1      MOL     
@<SCITEGIC>MOL_PROPERTY
VM2 Rank
SciTegic.value.IntegerValue
98

@<SCITEGIC>MOL_PROPERTY
Conf_Id
SciTegic.value.IntegerValue
567

@<SCITEGIC>MOL_PROPERTY
Probability
SciTegic.value.DoubleValue
0.00

@<SCITEGIC>MOL_PROPERTY
Sum Probability
SciTegic.value.DoubleValue
99.95

@<SCITEGIC>MOL_PROPERTY
Delta G
SciTegic.value.DoubleValue
4.145

@<SCITEGIC>MOL_PROPERTY
G
SciTegic.value.DoubleValue
66.220

@<SCITEGIC>MOL_PROPERTY
E
SciTegic.value.DoubleValue
33.542

@<SCITEGIC>MOL_PROPERTY
-TS
SciTegic.value.DoubleValue
32.679

@<SCITEGIC>MOL_PROPERTY
U+W
SciTegic.value.DoubleValue
12.974

@<SCITEGIC>MOL_PROPERTY
U
SciTegic.value.DoubleValue
15.029

@<SCITEGIC>MOL_PROPERTY
W
SciTegic.value.DoubleValue
-2.055

@<SCITEGIC>MOL_PROPERTY
W(PB)
SciTegic.value.DoubleValue
-4.194

@<SCITEGIC>MOL_PROPERTY
W(SA)
SciTegic.value.DoubleValue
2.139

@<SCITEGIC>MOL_PROPERTY
Valence
SciTegic.value.DoubleValue
18.886

@<SCITEGIC>MOL_PROPERTY
Coulomb
SciTegic.value.DoubleValue
-8.127

@<SCITEGIC>MOL_PROPERTY
VdW
SciTegic.value.DoubleValue
4.270

@<SCITEGIC>MOL_PROPERTY
VdW6
SciTegic.value.DoubleValue
-13.485

@<SCITEGIC>MOL_PROPERTY
VdW12
SciTegic.value.DoubleValue
17.755

@<SCITEGIC>MOL_PROPERTY
Bond
SciTegic.value.DoubleValue
0.714

@<SCITEGIC>MOL_PROPERTY
Angle
SciTegic.value.DoubleValue
8.959

@<SCITEGIC>MOL_PROPERTY
Pdih
SciTegic.value.DoubleValue
9.213

@<SCITEGIC>MOL_PROPERTY
Idih
SciTegic.value.DoubleValue
0.000

@<SCITEGIC>MOL_PROPERTY
Tether
SciTegic.value.DoubleValue
0.000

@<TRIPOS>MOLECULE
guest-s17_vm2.mol2 : vm2 ligand conformer 99
          25          25           1
SMALL
USER_CHARGES
 
@<TRIPOS>ATOM
       1    C1      21.378666   19.559783   21.242099 C.3        1 MOL1        -0.1684
       2    H1      21.941807   19.785826   20.326305 H          1 MOL1         0.0833
       3    H2      22.136378   19.627099   22.029206 H          1 MOL1         0.0833
       4    C2      20.878970   18.094997   21.132461 C.3        1 MOL1        -0.1684
       5    H3      20.216416   18.003835   20.261160 H          1 MOL1         0.0833
       6    H4      21.755071   17.474476   20.899491 H          1 MOL1         0.0833
       7    C3      20.175104   17.461886   22.368216 C.3        1 MOL1        -0.1684
       8    H5      20.290887   16.372818   22.282801 H          1 MOL1         0.0833
       9    H6      19.091602   17.608517   22.316726 H          1 MOL1         0.0833
      10    C4      20.683197   17.878818   23.774814 C.3        1 MOL1        -0.1760
      11    H7      20.163456   17.239040   24.500884 H          1 MOL1         0.0833
      12    H8      21.746538   17.619868   23.857108 H          1 MOL1         0.0833
      13    C5      20.499666   19.358855   24.219069 C.3        1 MOL1         0.1219
      14    H9      21.356334   19.953553   23.885398 H          1 MOL1         0.0790
      15    C6      19.210301   20.078047   23.749848 C.3        1 MOL1        -0.1760
      16    H10     18.336542   19.524242   24.116910 H          1 MOL1         0.0833
      17    H11     19.182183   21.048447   24.262924 H          1 MOL1         0.0833
      18    C7      19.031067   20.355520   22.227353 C.3        1 MOL1        -0.1684
      19    H12     18.349483   21.211801   22.132677 H          1 MOL1         0.0833
      20    H13     18.485347   19.538993   21.744113 H          1 MOL1         0.0833
      21    C8      20.306262   20.676877   21.404399 C.3        1 MOL1        -0.1684
      22    H14     19.972975   20.960464   20.396720 H          1 MOL1         0.0833
      23    H15     20.786664   21.574640   21.816393 H          1 MOL1         0.0833
      24    O1      20.500768   19.378217   25.641740 O.3        1 MOL1        -0.5508
      25    H16     21.347627   18.977091   25.928613 H          1 MOL1         0.3780
@<TRIPOS>BOND
    1     1     2    1
    2     1     3    1
    3     1     4    1
    4     4     5    1
    5     4     6    1
    6     4     7    1
    7     7     8    1
    8     7     9    1
    9     7    10    1
   10    10    11    1
   11    10    12    1
   12    10    13    1
   13    13    14    1
   14    13    15    1
   15    15    16    1
   16    15    17    1
   17    15    18    1
   18    18    19    1
   19    18    20    1
   20     1    21    1
   21    18    21    1
   22    21    22    1
   23    21    23    1
   24    13    24    1
   25    24    25    1
@<TRIPOS>SUBSTRUCTURE
       1 MOL1            1 RESIDUE      1      MOL     
@<SCITEGIC>MOL_PROPERTY
VM2 Rank
SciTegic.value.IntegerValue
99

@<SCITEGIC>MOL_PROPERTY
Conf_Id
SciTegic.value.IntegerValue
1447

@<SCITEGIC>MOL_PROPERTY
Probability
SciTegic.value.DoubleValue
0.00

@<SCITEGIC>MOL_PROPERTY
Sum Probability
SciTegic.value.DoubleValue
99.96

@<SCITEGIC>MOL_PROPERTY
Delta G
SciTegic.value.DoubleValue
4.147

@<SCITEGIC>MOL_PROPERTY
G
SciTegic.value.DoubleValue
66.222

@<SCITEGIC>MOL_PROPERTY
E
SciTegic.value.DoubleValue
33.544

@<SCITEGIC>MOL_PROPERTY
-TS
SciTegic.value.DoubleValue
32.678

@<SCITEGIC>MOL_PROPERTY
U+W
SciTegic.value.DoubleValue
12.976

@<SCITEGIC>MOL_PROPERTY
U
SciTegic.value.DoubleValue
15.029

@<SCITEGIC>MOL_PROPERTY
W
SciTegic.value.DoubleValue
-2.053

@<SCITEGIC>MOL_PROPERTY
W(PB)
SciTegic.value.DoubleValue
-4.201

@<SCITEGIC>MOL_PROPERTY
W(SA)
SciTegic.value.DoubleValue
2.148

@<SCITEGIC>MOL_PROPERTY
Valence
SciTegic.value.DoubleValue
18.887

@<SCITEGIC>MOL_PROPERTY
Coulomb
SciTegic.value.DoubleValue
-8.127

@<SCITEGIC>MOL_PROPERTY
VdW
SciTegic.value.DoubleValue
4.270

@<SCITEGIC>MOL_PROPERTY
VdW6
SciTegic.value.DoubleValue
-13.485

@<SCITEGIC>MOL_PROPERTY
VdW12
SciTegic.value.DoubleValue
17.755

@<SCITEGIC>MOL_PROPERTY
Bond
SciTegic.value.DoubleValue
0.714

@<SCITEGIC>MOL_PROPERTY
Angle
SciTegic.value.DoubleValue
8.959

@<SCITEGIC>MOL_PROPERTY
Pdih
SciTegic.value.DoubleValue
9.213

@<SCITEGIC>MOL_PROPERTY
Idih
SciTegic.value.DoubleValue
0.000

@<SCITEGIC>MOL_PROPERTY
Tether
SciTegic.value.DoubleValue
0.000

@<TRIPOS>MOLECULE
guest-s17_vm2.mol2 : vm2 ligand conformer 100
          25          25           1
SMALL
USER_CHARGES
 
@<TRIPOS>ATOM
       1    C1      20.713702   19.496029   20.721317 C.3        1 MOL1        -0.1684
       2    H1      20.481886   19.026719   19.755495 H          1 MOL1         0.0833
       3    H2      21.313336   20.383587   20.478327 H          1 MOL1         0.0833
       4    C2      21.596608   18.495880   21.523792 C.3        1 MOL1        -0.1684
       5    H3      22.234657   17.975428   20.796526 H          1 MOL1         0.0833
       6    H4      22.313888   19.029149   22.155410 H          1 MOL1         0.0833
       7    C3      20.871956   17.414182   22.367080 C.3        1 MOL1        -0.1684
       8    H5      21.646185   16.737073   22.753084 H          1 MOL1         0.0833
       9    H6      20.248549   16.798277   21.704952 H          1 MOL1         0.0833
      10    C4      20.011505   17.878822   23.579921 C.3        1 MOL1        -0.1760
      11    H7      18.972890   18.038607   23.276818 H          1 MOL1         0.0833
      12    H8      19.952327   17.028119   24.271909 H          1 MOL1         0.0833
      13    C5      20.505173   19.103919   24.390462 C.3        1 MOL1         0.1219
      14    H9      21.523026   18.888730   24.745560 H          1 MOL1         0.0790
      15    C6      20.532859   20.485855   23.676047 C.3        1 MOL1        -0.1760
      16    H10     20.490175   21.261161   24.452959 H          1 MOL1         0.0833
      17    H11     21.509237   20.653551   23.213320 H          1 MOL1         0.0833
      18    C7      19.416831   20.797314   22.641414 C.3        1 MOL1        -0.1684
      19    H12     19.543683   21.846483   22.341537 H          1 MOL1         0.0833
      20    H13     18.437556   20.752194   23.136205 H          1 MOL1         0.0833
      21    C8      19.363769   19.945914   21.339534 C.3        1 MOL1        -0.1684
      22    H14     18.715997   19.073322   21.468892 H          1 MOL1         0.0833
      23    H15     18.837615   20.545449   20.584201 H          1 MOL1         0.0833
      24    O1      19.651597   19.225084   25.520433 O.3        1 MOL1        -0.5508
      25    H16     18.776462   19.486354   25.168337 H          1 MOL1         0.3780
@<TRIPOS>BOND
    1     1     2    1
    2     1     3    1
    3     1     4    1
    4     4     5    1
    5     4     6    1
    6     4     7    1
    7     7     8    1
    8     7     9    1
    9     7    10    1
   10    10    11    1
   11    10    12    1
   12    10    13    1
   13    13    14    1
   14    13    15    1
   15    15    16    1
   16    15    17    1
   17    15    18    1
   18    18    19    1
   19    18    20    1
   20     1    21    1
   21    18    21    1
   22    21    22    1
   23    21    23    1
   24    13    24    1
   25    24    25    1
@<TRIPOS>SUBSTRUCTURE
       1 MOL1            1 RESIDUE      1      MOL     
@<SCITEGIC>MOL_PROPERTY
VM2 Rank
SciTegic.value.IntegerValue
100

@<SCITEGIC>MOL_PROPERTY
Conf_Id
SciTegic.value.IntegerValue
1117

@<SCITEGIC>MOL_PROPERTY
Probability
SciTegic.value.DoubleValue
0.00

@<SCITEGIC>MOL_PROPERTY
Sum Probability
SciTegic.value.DoubleValue
99.96

@<SCITEGIC>MOL_PROPERTY
Delta G
SciTegic.value.DoubleValue
4.153

@<SCITEGIC>MOL_PROPERTY
G
SciTegic.value.DoubleValue
66.229

@<SCITEGIC>MOL_PROPERTY
E
SciTegic.value.DoubleValue
33.565

@<SCITEGIC>MOL_PROPERTY
-TS
SciTegic.value.DoubleValue
32.663

@<SCITEGIC>MOL_PROPERTY
U+W
SciTegic.value.DoubleValue
12.998

@<SCITEGIC>MOL_PROPERTY
U
SciTegic.value.DoubleValue
14.560

@<SCITEGIC>MOL_PROPERTY
W
SciTegic.value.DoubleValue
-1.562

@<SCITEGIC>MOL_PROPERTY
W(PB)
SciTegic.value.DoubleValue
-3.690

@<SCITEGIC>MOL_PROPERTY
W(SA)
SciTegic.value.DoubleValue
2.128

@<SCITEGIC>MOL_PROPERTY
Valence
SciTegic.value.DoubleValue
19.306

@<SCITEGIC>MOL_PROPERTY
Coulomb
SciTegic.value.DoubleValue
-8.913

@<SCITEGIC>MOL_PROPERTY
VdW
SciTegic.value.DoubleValue
4.167

@<SCITEGIC>MOL_PROPERTY
VdW6
SciTegic.value.DoubleValue
-13.653

@<SCITEGIC>MOL_PROPERTY
VdW12
SciTegic.value.DoubleValue
17.820

@<SCITEGIC>MOL_PROPERTY
Bond
SciTegic.value.DoubleValue
0.720

@<SCITEGIC>MOL_PROPERTY
Angle
SciTegic.value.DoubleValue
9.342

@<SCITEGIC>MOL_PROPERTY
Pdih
SciTegic.value.DoubleValue
9.244

@<SCITEGIC>MOL_PROPERTY
Idih
SciTegic.value.DoubleValue
0.000

@<SCITEGIC>MOL_PROPERTY
Tether
SciTegic.value.DoubleValue
0.000

@<TRIPOS>MOLECULE
guest-s17_vm2.mol2 : vm2 ligand conformer 101
          25          25           1
SMALL
USER_CHARGES
 
@<TRIPOS>ATOM
       1    C1      20.787467   19.285127   20.718667 C.3        1 MOL1        -0.1684
       2    H1      21.846424   19.124744   20.475248 H          1 MOL1         0.0833
       3    H2      20.282253   19.416898   19.752129 H          1 MOL1         0.0833
       4    C2      20.209619   17.994677   21.357211 C.3        1 MOL1        -0.1684
       5    H3      19.128903   18.107768   21.487670 H          1 MOL1         0.0833
       6    H4      20.294815   17.190861   20.613284 H          1 MOL1         0.0833
       7    C3      20.876848   17.478040   22.665064 C.3        1 MOL1        -0.1684
       8    H5      21.735778   16.859072   22.371992 H          1 MOL1         0.0833
       9    H6      20.183749   16.793294   23.171594 H          1 MOL1         0.0833
      10    C4      21.403022   18.526562   23.683265 C.3        1 MOL1        -0.1760
      11    H7      21.948114   17.983016   24.466810 H          1 MOL1         0.0833
      12    H8      22.184717   19.126863   23.209830 H          1 MOL1         0.0833
      13    C5      20.366581   19.449362   24.386920 C.3        1 MOL1         0.1219
      14    H9      20.895848   20.350557   24.727726 H          1 MOL1         0.0790
      15    C6      19.127547   19.900499   23.572789 C.3        1 MOL1        -0.1760
      16    H10     18.543475   19.022148   23.283856 H          1 MOL1         0.0833
      17    H11     18.461741   20.441196   24.258642 H          1 MOL1         0.0833
      18    C7      19.362689   20.831222   22.345714 C.3        1 MOL1        -0.1684
      19    H12     19.386886   21.865000   22.716690 H          1 MOL1         0.0833
      20    H13     18.485795   20.777598   21.686494 H          1 MOL1         0.0833
      21    C8      20.647758   20.623210   21.502119 C.3        1 MOL1        -0.1684
      22    H14     20.692746   21.434602   20.762854 H          1 MOL1         0.0833
      23    H15     21.527000   20.801467   22.128986 H          1 MOL1         0.0833
      24    O1      19.882469   18.754301   25.528250 O.3        1 MOL1        -0.5508
      25    H16     19.483451   17.927369   25.189039 H          1 MOL1         0.3780
@<TRIPOS>BOND
    1     1     2    1
    2     1     3    1
    3     1     4    1
    4     4     5    1
    5     4     6    1
    6     4     7    1
    7     7     8    1
    8     7     9    1
    9     7    10    1
   10    10    11    1
   11    10    12    1
   12    10    13    1
   13    13    14    1
   14    13    15    1
   15    15    16    1
   16    15    17    1
   17    15    18    1
   18    18    19    1
   19    18    20    1
   20     1    21    1
   21    18    21    1
   22    21    22    1
   23    21    23    1
   24    13    24    1
   25    24    25    1
@<TRIPOS>SUBSTRUCTURE
       1 MOL1            1 RESIDUE      1      MOL     
@<SCITEGIC>MOL_PROPERTY
VM2 Rank
SciTegic.value.IntegerValue
101

@<SCITEGIC>MOL_PROPERTY
Conf_Id
SciTegic.value.IntegerValue
1936

@<SCITEGIC>MOL_PROPERTY
Probability
SciTegic.value.DoubleValue
0.00

@<SCITEGIC>MOL_PROPERTY
Sum Probability
SciTegic.value.DoubleValue
99.97

@<SCITEGIC>MOL_PROPERTY
Delta G
SciTegic.value.DoubleValue
4.165

@<SCITEGIC>MOL_PROPERTY
G
SciTegic.value.DoubleValue
66.240

@<SCITEGIC>MOL_PROPERTY
E
SciTegic.value.DoubleValue
33.577

@<SCITEGIC>MOL_PROPERTY
-TS
SciTegic.value.DoubleValue
32.663

@<SCITEGIC>MOL_PROPERTY
U+W
SciTegic.value.DoubleValue
13.009

@<SCITEGIC>MOL_PROPERTY
U
SciTegic.value.DoubleValue
14.560

@<SCITEGIC>MOL_PROPERTY
W
SciTegic.value.DoubleValue
-1.550

@<SCITEGIC>MOL_PROPERTY
W(PB)
SciTegic.value.DoubleValue
-3.681

@<SCITEGIC>MOL_PROPERTY
W(SA)
SciTegic.value.DoubleValue
2.130

@<SCITEGIC>MOL_PROPERTY
Valence
SciTegic.value.DoubleValue
19.306

@<SCITEGIC>MOL_PROPERTY
Coulomb
SciTegic.value.DoubleValue
-8.913

@<SCITEGIC>MOL_PROPERTY
VdW
SciTegic.value.DoubleValue
4.167

@<SCITEGIC>MOL_PROPERTY
VdW6
SciTegic.value.DoubleValue
-13.653

@<SCITEGIC>MOL_PROPERTY
VdW12
SciTegic.value.DoubleValue
17.820

@<SCITEGIC>MOL_PROPERTY
Bond
SciTegic.value.DoubleValue
0.720

@<SCITEGIC>MOL_PROPERTY
Angle
SciTegic.value.DoubleValue
9.344

@<SCITEGIC>MOL_PROPERTY
Pdih
SciTegic.value.DoubleValue
9.243

@<SCITEGIC>MOL_PROPERTY
Idih
SciTegic.value.DoubleValue
0.000

@<SCITEGIC>MOL_PROPERTY
Tether
SciTegic.value.DoubleValue
0.000

@<TRIPOS>MOLECULE
guest-s17_vm2.mol2 : vm2 ligand conformer 102
          25          25           1
SMALL
USER_CHARGES
 
@<TRIPOS>ATOM
       1    C1      21.378867   19.559826   21.242151 C.3        1 MOL1        -0.1684
       2    H1      21.942146   19.786203   20.326526 H          1 MOL1         0.0833
       3    H2      22.136456   19.627010   22.029407 H          1 MOL1         0.0833
       4    C2      20.879651   18.094896   21.132140 C.3        1 MOL1        -0.1684
       5    H3      20.217386   18.003553   20.260644 H          1 MOL1         0.0833
       6    H4      21.756083   17.474765   20.899385 H          1 MOL1         0.0833
       7    C3      20.175813   17.461237   22.367692 C.3        1 MOL1        -0.1684
       8    H5      20.293699   16.372344   22.283269 H          1 MOL1         0.0833
       9    H6      19.092115   17.605835   22.315193 H          1 MOL1         0.0833
      10    C4      20.681577   17.879816   23.774820 C.3        1 MOL1        -0.1760
      11    H7      20.162507   17.241928   24.502818 H          1 MOL1         0.0833
      12    H8      21.744751   17.622345   23.862344 H          1 MOL1         0.0833
      13    C5      20.499286   19.359593   24.219365 C.3        1 MOL1         0.1219
      14    H9      21.358522   19.950561   23.885776 H          1 MOL1         0.0790
      15    C6      19.209859   20.079915   23.750102 C.3        1 MOL1        -0.1760
      16    H10     18.335741   19.525253   24.115670 H          1 MOL1         0.0833
      17    H11     19.177632   21.052853   24.257661 H          1 MOL1         0.0833
      18    C7      19.030994   20.354373   22.227211 C.3        1 MOL1        -0.1684
      19    H12     18.348086   21.209407   22.130404 H          1 MOL1         0.0833
      20    H13     18.486615   19.536418   21.744901 H          1 MOL1         0.0833
      21    C8      20.306017   20.676471   21.404373 C.3        1 MOL1        -0.1684
      22    H14     20.785959   21.574748   21.815741 H          1 MOL1         0.0833
      23    H15     19.972495   20.959393   20.396573 H          1 MOL1         0.0833
      24    O1      20.501936   19.376872   25.642147 O.3        1 MOL1        -0.5508
      25    H16     20.452450   20.316984   25.913798 H          1 MOL1         0.3780
@<TRIPOS>BOND
    1     1     2    1
    2     1     3    1
    3     1     4    1
    4     4     5    1
    5     4     6    1
    6     4     7    1
    7     7     8    1
    8     7     9    1
    9     7    10    1
   10    10    11    1
   11    10    12    1
   12    10    13    1
   13    13    14    1
   14    13    15    1
   15    15    16    1
   16    15    17    1
   17    15    18    1
   18    18    19    1
   19    18    20    1
   20     1    21    1
   21    18    21    1
   22    21    22    1
   23    21    23    1
   24    13    24    1
   25    24    25    1
@<TRIPOS>SUBSTRUCTURE
       1 MOL1            1 RESIDUE      1      MOL     
@<SCITEGIC>MOL_PROPERTY
VM2 Rank
SciTegic.value.IntegerValue
102

@<SCITEGIC>MOL_PROPERTY
Conf_Id
SciTegic.value.IntegerValue
675

@<SCITEGIC>MOL_PROPERTY
Probability
SciTegic.value.DoubleValue
0.00

@<SCITEGIC>MOL_PROPERTY
Sum Probability
SciTegic.value.DoubleValue
99.97

@<SCITEGIC>MOL_PROPERTY
Delta G
SciTegic.value.DoubleValue
4.183

@<SCITEGIC>MOL_PROPERTY
G
SciTegic.value.DoubleValue
66.258

@<SCITEGIC>MOL_PROPERTY
E
SciTegic.value.DoubleValue
33.597

@<SCITEGIC>MOL_PROPERTY
-TS
SciTegic.value.DoubleValue
32.661

@<SCITEGIC>MOL_PROPERTY
U+W
SciTegic.value.DoubleValue
13.030

@<SCITEGIC>MOL_PROPERTY
U
SciTegic.value.DoubleValue
15.076

@<SCITEGIC>MOL_PROPERTY
W
SciTegic.value.DoubleValue
-2.046

@<SCITEGIC>MOL_PROPERTY
W(PB)
SciTegic.value.DoubleValue
-4.188

@<SCITEGIC>MOL_PROPERTY
W(SA)
SciTegic.value.DoubleValue
2.142

@<SCITEGIC>MOL_PROPERTY
Valence
SciTegic.value.DoubleValue
18.884

@<SCITEGIC>MOL_PROPERTY
Coulomb
SciTegic.value.DoubleValue
-8.074

@<SCITEGIC>MOL_PROPERTY
VdW
SciTegic.value.DoubleValue
4.265

@<SCITEGIC>MOL_PROPERTY
VdW6
SciTegic.value.DoubleValue
-13.486

@<SCITEGIC>MOL_PROPERTY
VdW12
SciTegic.value.DoubleValue
17.751

@<SCITEGIC>MOL_PROPERTY
Bond
SciTegic.value.DoubleValue
0.713

@<SCITEGIC>MOL_PROPERTY
Angle
SciTegic.value.DoubleValue
8.958

@<SCITEGIC>MOL_PROPERTY
Pdih
SciTegic.value.DoubleValue
9.213

@<SCITEGIC>MOL_PROPERTY
Idih
SciTegic.value.DoubleValue
0.000

@<SCITEGIC>MOL_PROPERTY
Tether
SciTegic.value.DoubleValue
0.000

@<TRIPOS>MOLECULE
guest-s17_vm2.mol2 : vm2 ligand conformer 103
          25          25           1
SMALL
USER_CHARGES
 
@<TRIPOS>ATOM
       1    C1      21.327685   19.720493   21.251952 C.3        1 MOL1        -0.1684
       2    H1      21.894715   19.959231   20.341798 H          1 MOL1         0.0833
       3    H2      21.900258   20.213030   22.044290 H          1 MOL1         0.0833
       4    C2      21.363868   18.172800   21.417954 C.3        1 MOL1        -0.1684
       5    H3      21.340865   17.734554   20.410804 H          1 MOL1         0.0833
       6    H4      22.335266   17.882294   21.840404 H          1 MOL1         0.0833
       7    C3      20.228805   17.495684   22.230140 C.3        1 MOL1        -0.1684
       8    H5      20.356408   16.408546   22.137041 H          1 MOL1         0.0833
       9    H6      19.269855   17.683763   21.737125 H          1 MOL1         0.0833
      10    C4      20.143467   17.819214   23.751510 C.3        1 MOL1        -0.1760
      11    H7      19.130311   17.589635   24.106729 H          1 MOL1         0.0833
      12    H8      20.806296   17.112511   24.267738 H          1 MOL1         0.0833
      13    C5      20.534556   19.243105   24.221905 C.3        1 MOL1         0.1219
      14    H9      21.562655   19.436648   23.898845 H          1 MOL1         0.0790
      15    C6      19.616688   20.413297   23.765004 C.3        1 MOL1        -0.1760
      16    H10     18.790522   20.495261   24.484063 H          1 MOL1         0.0833
      17    H11     20.181300   21.349848   23.856510 H          1 MOL1         0.0833
      18    C7      18.978390   20.345666   22.351138 C.3        1 MOL1        -0.1684
      19    H12     18.288927   21.195719   22.257520 H          1 MOL1         0.0833
      20    H13     18.318821   19.474050   22.293492 H          1 MOL1         0.0833
      21    C8      19.937028   20.396845   21.125620 C.3        1 MOL1        -0.1684
      22    H14     19.415287   19.988842   20.249399 H          1 MOL1         0.0833
      23    H15     20.115986   21.455369   20.892445 H          1 MOL1         0.0833
      24    O1      20.533512   19.235896   25.644776 O.3        1 MOL1        -0.5508
      25    H16     21.163488   18.539587   25.924665 H          1 MOL1         0.3780
@<TRIPOS>BOND
    1     1     2    1
    2     1     3    1
    3     1     4    1
    4     4     5    1
    5     4     6    1
    6     4     7    1
    7     7     8    1
    8     7     9    1
    9     7    10    1
   10    10    11    1
   11    10    12    1
   12    10    13    1
   13    13    14    1
   14    13    15    1
   15    15    16    1
   16    15    17    1
   17    15    18    1
   18    18    19    1
   19    18    20    1
   20     1    21    1
   21    18    21    1
   22    21    22    1
   23    21    23    1
   24    13    24    1
   25    24    25    1
@<TRIPOS>SUBSTRUCTURE
       1 MOL1            1 RESIDUE      1      MOL     
@<SCITEGIC>MOL_PROPERTY
VM2 Rank
SciTegic.value.IntegerValue
103

@<SCITEGIC>MOL_PROPERTY
Conf_Id
SciTegic.value.IntegerValue
528

@<SCITEGIC>MOL_PROPERTY
Probability
SciTegic.value.DoubleValue
0.00

@<SCITEGIC>MOL_PROPERTY
Sum Probability
SciTegic.value.DoubleValue
99.98

@<SCITEGIC>MOL_PROPERTY
Delta G
SciTegic.value.DoubleValue
4.186

@<SCITEGIC>MOL_PROPERTY
G
SciTegic.value.DoubleValue
66.261

@<SCITEGIC>MOL_PROPERTY
E
SciTegic.value.DoubleValue
33.601

@<SCITEGIC>MOL_PROPERTY
-TS
SciTegic.value.DoubleValue
32.661

@<SCITEGIC>MOL_PROPERTY
U+W
SciTegic.value.DoubleValue
13.033

@<SCITEGIC>MOL_PROPERTY
U
SciTegic.value.DoubleValue
15.076

@<SCITEGIC>MOL_PROPERTY
W
SciTegic.value.DoubleValue
-2.043

@<SCITEGIC>MOL_PROPERTY
W(PB)
SciTegic.value.DoubleValue
-4.186

@<SCITEGIC>MOL_PROPERTY
W(SA)
SciTegic.value.DoubleValue
2.143

@<SCITEGIC>MOL_PROPERTY
Valence
SciTegic.value.DoubleValue
18.884

@<SCITEGIC>MOL_PROPERTY
Coulomb
SciTegic.value.DoubleValue
-8.074

@<SCITEGIC>MOL_PROPERTY
VdW
SciTegic.value.DoubleValue
4.265

@<SCITEGIC>MOL_PROPERTY
VdW6
SciTegic.value.DoubleValue
-13.486

@<SCITEGIC>MOL_PROPERTY
VdW12
SciTegic.value.DoubleValue
17.751

@<SCITEGIC>MOL_PROPERTY
Bond
SciTegic.value.DoubleValue
0.713

@<SCITEGIC>MOL_PROPERTY
Angle
SciTegic.value.DoubleValue
8.957

@<SCITEGIC>MOL_PROPERTY
Pdih
SciTegic.value.DoubleValue
9.214

@<SCITEGIC>MOL_PROPERTY
Idih
SciTegic.value.DoubleValue
0.000

@<SCITEGIC>MOL_PROPERTY
Tether
SciTegic.value.DoubleValue
0.000

@<TRIPOS>MOLECULE
guest-s17_vm2.mol2 : vm2 ligand conformer 104
          25          25           1
SMALL
USER_CHARGES
 
@<TRIPOS>ATOM
       1    C1      21.378760   19.558980   21.242980 C.3        1 MOL1        -0.1684
       2    H1      21.942793   19.785190   20.327784 H          1 MOL1         0.0833
       3    H2      22.135901   19.624223   22.030934 H          1 MOL1         0.0833
       4    C2      20.876463   18.095206   21.131672 C.3        1 MOL1        -0.1684
       5    H3      20.211621   18.006423   20.261871 H          1 MOL1         0.0833
       6    H4      21.751139   17.473874   20.895513 H          1 MOL1         0.0833
       7    C3      20.175300   17.461217   22.368548 C.3        1 MOL1        -0.1684
       8    H5      20.292623   16.372319   22.282873 H          1 MOL1         0.0833
       9    H6      19.091512   17.606604   22.318719 H          1 MOL1         0.0833
      10    C4      20.686269   17.879177   23.773793 C.3        1 MOL1        -0.1760
      11    H7      20.178161   17.232130   24.500987 H          1 MOL1         0.0833
      12    H8      21.752252   17.629725   23.852373 H          1 MOL1         0.0833
      13    C5      20.497795   19.358267   24.219369 C.3        1 MOL1         0.1219
      14    H9      21.355369   19.952809   23.888086 H          1 MOL1         0.0790
      15    C6      19.208459   20.078109   23.749548 C.3        1 MOL1        -0.1760
      16    H10     18.331120   19.526880   24.111779 H          1 MOL1         0.0833
      17    H11     19.181189   21.049883   24.260515 H          1 MOL1         0.0833
      18    C7      19.031589   20.355361   22.226912 C.3        1 MOL1        -0.1684
      19    H12     18.349837   21.211397   22.130906 H          1 MOL1         0.0833
      20    H13     18.487141   19.538550   21.742590 H          1 MOL1         0.0833
      21    C8      20.307888   20.677278   21.406131 C.3        1 MOL1        -0.1684
      22    H14     19.976097   20.963161   20.398604 H          1 MOL1         0.0833
      23    H15     20.788936   21.573633   21.820451 H          1 MOL1         0.0833
      24    O1      20.501475   19.379405   25.641046 O.3        1 MOL1        -0.5508
      25    H16     19.710139   18.879189   25.927697 H          1 MOL1         0.3780
@<TRIPOS>BOND
    1     1     2    1
    2     1     3    1
    3     1     4    1
    4     4     5    1
    5     4     6    1
    6     4     7    1
    7     7     8    1
    8     7     9    1
    9     7    10    1
   10    10    11    1
   11    10    12    1
   12    10    13    1
   13    13    14    1
   14    13    15    1
   15    15    16    1
   16    15    17    1
   17    15    18    1
   18    18    19    1
   19    18    20    1
   20     1    21    1
   21    18    21    1
   22    21    22    1
   23    21    23    1
   24    13    24    1
   25    24    25    1
@<TRIPOS>SUBSTRUCTURE
       1 MOL1            1 RESIDUE      1      MOL     
@<SCITEGIC>MOL_PROPERTY
VM2 Rank
SciTegic.value.IntegerValue
104

@<SCITEGIC>MOL_PROPERTY
Conf_Id
SciTegic.value.IntegerValue
1221

@<SCITEGIC>MOL_PROPERTY
Probability
SciTegic.value.DoubleValue
0.00

@<SCITEGIC>MOL_PROPERTY
Sum Probability
SciTegic.value.DoubleValue
99.98

@<SCITEGIC>MOL_PROPERTY
Delta G
SciTegic.value.DoubleValue
4.200

@<SCITEGIC>MOL_PROPERTY
G
SciTegic.value.DoubleValue
66.276

@<SCITEGIC>MOL_PROPERTY
E
SciTegic.value.DoubleValue
33.617

@<SCITEGIC>MOL_PROPERTY
-TS
SciTegic.value.DoubleValue
32.659

@<SCITEGIC>MOL_PROPERTY
U+W
SciTegic.value.DoubleValue
13.049

@<SCITEGIC>MOL_PROPERTY
U
SciTegic.value.DoubleValue
15.005

@<SCITEGIC>MOL_PROPERTY
W
SciTegic.value.DoubleValue
-1.955

@<SCITEGIC>MOL_PROPERTY
W(PB)
SciTegic.value.DoubleValue
-4.087

@<SCITEGIC>MOL_PROPERTY
W(SA)
SciTegic.value.DoubleValue
2.131

@<SCITEGIC>MOL_PROPERTY
Valence
SciTegic.value.DoubleValue
19.235

@<SCITEGIC>MOL_PROPERTY
Coulomb
SciTegic.value.DoubleValue
-8.450

@<SCITEGIC>MOL_PROPERTY
VdW
SciTegic.value.DoubleValue
4.220

@<SCITEGIC>MOL_PROPERTY
VdW6
SciTegic.value.DoubleValue
-13.530

@<SCITEGIC>MOL_PROPERTY
VdW12
SciTegic.value.DoubleValue
17.750

@<SCITEGIC>MOL_PROPERTY
Bond
SciTegic.value.DoubleValue
0.710

@<SCITEGIC>MOL_PROPERTY
Angle
SciTegic.value.DoubleValue
8.934

@<SCITEGIC>MOL_PROPERTY
Pdih
SciTegic.value.DoubleValue
9.590

@<SCITEGIC>MOL_PROPERTY
Idih
SciTegic.value.DoubleValue
0.000

@<SCITEGIC>MOL_PROPERTY
Tether
SciTegic.value.DoubleValue
0.000

@<TRIPOS>MOLECULE
guest-s17_vm2.mol2 : vm2 ligand conformer 105
          25          25           1
SMALL
USER_CHARGES
 
@<TRIPOS>ATOM
       1    C1      21.327133   19.721106   21.252890 C.3        1 MOL1        -0.1684
       2    H1      21.894670   19.960580   20.343250 H          1 MOL1         0.0833
       3    H2      21.897921   20.214622   22.046004 H          1 MOL1         0.0833
       4    C2      21.365864   18.173643   21.419726 C.3        1 MOL1        -0.1684
       5    H3      21.346189   17.734614   20.412854 H          1 MOL1         0.0833
       6    H4      22.336637   17.885254   21.845108 H          1 MOL1         0.0833
       7    C3      20.230052   17.495423   22.229790 C.3        1 MOL1        -0.1684
       8    H5      20.359222   16.408412   22.137474 H          1 MOL1         0.0833
       9    H6      19.271898   17.682611   21.734741 H          1 MOL1         0.0833
      10    C4      20.141262   17.819439   23.750876 C.3        1 MOL1        -0.1760
      11    H7      19.128333   17.585011   24.102741 H          1 MOL1         0.0833
      12    H8      20.806792   17.117141   24.270512 H          1 MOL1         0.0833
      13    C5      20.532439   19.242952   24.221925 C.3        1 MOL1         0.1219
      14    H9      21.561905   19.432901   23.901326 H          1 MOL1         0.0790
      15    C6      19.619382   20.416998   23.763989 C.3        1 MOL1        -0.1760
      16    H10     18.794341   20.513087   24.482133 H          1 MOL1         0.0833
      17    H11     20.191677   21.349924   23.846754 H          1 MOL1         0.0833
      18    C7      18.978009   20.345272   22.351904 C.3        1 MOL1        -0.1684
      19    H12     18.288111   21.194881   22.256997 H          1 MOL1         0.0833
      20    H13     18.318975   19.473002   22.296813 H          1 MOL1         0.0833
      21    C8      19.935156   20.394463   21.125168 C.3        1 MOL1        -0.1684
      22    H14     19.413502   19.982930   20.250541 H          1 MOL1         0.0833
      23    H15     20.112084   21.452606   20.888714 H          1 MOL1         0.0833
      24    O1      20.534702   19.233704   25.643733 O.3        1 MOL1        -0.5508
      25    H16     19.619302   19.024461   25.920969 H          1 MOL1         0.3780
@<TRIPOS>BOND
    1     1     2    1
    2     1     3    1
    3     1     4    1
    4     4     5    1
    5     4     6    1
    6     4     7    1
    7     7     8    1
    8     7     9    1
    9     7    10    1
   10    10    11    1
   11    10    12    1
   12    10    13    1
   13    13    14    1
   14    13    15    1
   15    15    16    1
   16    15    17    1
   17    15    18    1
   18    18    19    1
   19    18    20    1
   20     1    21    1
   21    18    21    1
   22    21    22    1
   23    21    23    1
   24    13    24    1
   25    24    25    1
@<TRIPOS>SUBSTRUCTURE
       1 MOL1            1 RESIDUE      1      MOL     
@<SCITEGIC>MOL_PROPERTY
VM2 Rank
SciTegic.value.IntegerValue
105

@<SCITEGIC>MOL_PROPERTY
Conf_Id
SciTegic.value.IntegerValue
1440

@<SCITEGIC>MOL_PROPERTY
Probability
SciTegic.value.DoubleValue
0.00

@<SCITEGIC>MOL_PROPERTY
Sum Probability
SciTegic.value.DoubleValue
99.98

@<SCITEGIC>MOL_PROPERTY
Delta G
SciTegic.value.DoubleValue
4.250

@<SCITEGIC>MOL_PROPERTY
G
SciTegic.value.DoubleValue
66.326

@<SCITEGIC>MOL_PROPERTY
E
SciTegic.value.DoubleValue
33.667

@<SCITEGIC>MOL_PROPERTY
-TS
SciTegic.value.DoubleValue
32.659

@<SCITEGIC>MOL_PROPERTY
U+W
SciTegic.value.DoubleValue
13.100

@<SCITEGIC>MOL_PROPERTY
U
SciTegic.value.DoubleValue
15.005

@<SCITEGIC>MOL_PROPERTY
W
SciTegic.value.DoubleValue
-1.905

@<SCITEGIC>MOL_PROPERTY
W(PB)
SciTegic.value.DoubleValue
-4.036

@<SCITEGIC>MOL_PROPERTY
W(SA)
SciTegic.value.DoubleValue
2.131

@<SCITEGIC>MOL_PROPERTY
Valence
SciTegic.value.DoubleValue
19.235

@<SCITEGIC>MOL_PROPERTY
Coulomb
SciTegic.value.DoubleValue
-8.450

@<SCITEGIC>MOL_PROPERTY
VdW
SciTegic.value.DoubleValue
4.220

@<SCITEGIC>MOL_PROPERTY
VdW6
SciTegic.value.DoubleValue
-13.530

@<SCITEGIC>MOL_PROPERTY
VdW12
SciTegic.value.DoubleValue
17.750

@<SCITEGIC>MOL_PROPERTY
Bond
SciTegic.value.DoubleValue
0.710

@<SCITEGIC>MOL_PROPERTY
Angle
SciTegic.value.DoubleValue
8.935

@<SCITEGIC>MOL_PROPERTY
Pdih
SciTegic.value.DoubleValue
9.590

@<SCITEGIC>MOL_PROPERTY
Idih
SciTegic.value.DoubleValue
0.000

@<SCITEGIC>MOL_PROPERTY
Tether
SciTegic.value.DoubleValue
0.000

@<TRIPOS>MOLECULE
guest-s17_vm2.mol2 : vm2 ligand conformer 106
          25          25           1
SMALL
USER_CHARGES
 
@<TRIPOS>ATOM
       1    C1      20.721516   19.500534   20.722499 C.3        1 MOL1        -0.1684
       2    H1      20.497004   19.037129   19.752120 H          1 MOL1         0.0833
       3    H2      21.322609   20.389785   20.489565 H          1 MOL1         0.0833
       4    C2      21.597729   18.495147   21.525859 C.3        1 MOL1        -0.1684
       5    H3      22.236150   17.973277   20.799945 H          1 MOL1         0.0833
       6    H4      22.314567   19.024588   22.161321 H          1 MOL1         0.0833
       7    C3      20.864887   17.415513   22.364924 C.3        1 MOL1        -0.1684
       8    H5      21.633975   16.731387   22.748737 H          1 MOL1         0.0833
       9    H6      20.236852   16.806564   21.700789 H          1 MOL1         0.0833
      10    C4      20.008046   17.882678   23.579786 C.3        1 MOL1        -0.1760
      11    H7      18.969130   18.050767   23.281593 H          1 MOL1         0.0833
      12    H8      19.944415   17.032472   24.271686 H          1 MOL1         0.0833
      13    C5      20.506119   19.105801   24.389993 C.3        1 MOL1         0.1219
      14    H9      21.527983   18.889970   24.733475 H          1 MOL1         0.0790
      15    C6      20.528657   20.487870   23.673277 C.3        1 MOL1        -0.1760
      16    H10     20.482187   21.267215   24.445132 H          1 MOL1         0.0833
      17    H11     21.503256   20.657783   23.207401 H          1 MOL1         0.0833
      18    C7      19.409415   20.790876   22.640128 C.3        1 MOL1        -0.1684
      19    H12     19.519734   21.843692   22.346938 H          1 MOL1         0.0833
      20    H13     18.432658   20.725597   23.138531 H          1 MOL1         0.0833
      21    C8      19.366791   19.945205   21.333897 C.3        1 MOL1        -0.1684
      22    H14     18.842727   20.545665   20.577906 H          1 MOL1         0.0833
      23    H15     18.721398   19.069848   21.457823 H          1 MOL1         0.0833
      24    O1      19.660841   19.219377   25.529638 O.3        1 MOL1        -0.5508
      25    H16     20.008612   19.960558   26.067176 H          1 MOL1         0.3780
@<TRIPOS>BOND
    1     1     2    1
    2     1     3    1
    3     1     4    1
    4     4     5    1
    5     4     6    1
    6     4     7    1
    7     7     8    1
    8     7     9    1
    9     7    10    1
   10    10    11    1
   11    10    12    1
   12    10    13    1
   13    13    14    1
   14    13    15    1
   15    15    16    1
   16    15    17    1
   17    15    18    1
   18    18    19    1
   19    18    20    1
   20     1    21    1
   21    18    21    1
   22    21    22    1
   23    21    23    1
   24    13    24    1
   25    24    25    1
@<TRIPOS>SUBSTRUCTURE
       1 MOL1            1 RESIDUE      1      MOL     
@<SCITEGIC>MOL_PROPERTY
VM2 Rank
SciTegic.value.IntegerValue
106

@<SCITEGIC>MOL_PROPERTY
Conf_Id
SciTegic.value.IntegerValue
336

@<SCITEGIC>MOL_PROPERTY
Probability
SciTegic.value.DoubleValue
0.00

@<SCITEGIC>MOL_PROPERTY
Sum Probability
SciTegic.value.DoubleValue
99.99

@<SCITEGIC>MOL_PROPERTY
Delta G
SciTegic.value.DoubleValue
4.583

@<SCITEGIC>MOL_PROPERTY
G
SciTegic.value.DoubleValue
66.658

@<SCITEGIC>MOL_PROPERTY
E
SciTegic.value.DoubleValue
33.998

@<SCITEGIC>MOL_PROPERTY
-TS
SciTegic.value.DoubleValue
32.661

@<SCITEGIC>MOL_PROPERTY
U+W
SciTegic.value.DoubleValue
13.430

@<SCITEGIC>MOL_PROPERTY
U
SciTegic.value.DoubleValue
15.643

@<SCITEGIC>MOL_PROPERTY
W
SciTegic.value.DoubleValue
-2.213

@<SCITEGIC>MOL_PROPERTY
W(PB)
SciTegic.value.DoubleValue
-4.344

@<SCITEGIC>MOL_PROPERTY
W(SA)
SciTegic.value.DoubleValue
2.131

@<SCITEGIC>MOL_PROPERTY
Valence
SciTegic.value.DoubleValue
18.917

@<SCITEGIC>MOL_PROPERTY
Coulomb
SciTegic.value.DoubleValue
-7.506

@<SCITEGIC>MOL_PROPERTY
VdW
SciTegic.value.DoubleValue
4.232

@<SCITEGIC>MOL_PROPERTY
VdW6
SciTegic.value.DoubleValue
-13.632

@<SCITEGIC>MOL_PROPERTY
VdW12
SciTegic.value.DoubleValue
17.864

@<SCITEGIC>MOL_PROPERTY
Bond
SciTegic.value.DoubleValue
0.735

@<SCITEGIC>MOL_PROPERTY
Angle
SciTegic.value.DoubleValue
9.140

@<SCITEGIC>MOL_PROPERTY
Pdih
SciTegic.value.DoubleValue
9.042

@<SCITEGIC>MOL_PROPERTY
Idih
SciTegic.value.DoubleValue
0.000

@<SCITEGIC>MOL_PROPERTY
Tether
SciTegic.value.DoubleValue
0.000

@<TRIPOS>MOLECULE
guest-s17_vm2.mol2 : vm2 ligand conformer 107
          25          25           1
SMALL
USER_CHARGES
 
@<TRIPOS>ATOM
       1    C1      20.795548   19.287815   20.719679 C.3        1 MOL1        -0.1684
       2    H1      21.856725   19.127508   20.486134 H          1 MOL1         0.0833
       3    H2      20.299442   19.420894   19.748622 H          1 MOL1         0.0833
       4    C2      20.210706   17.997269   21.351559 C.3        1 MOL1        -0.1684
       5    H3      19.129573   18.113937   21.476778 H          1 MOL1         0.0833
       6    H4      20.297803   17.194348   20.606947 H          1 MOL1         0.0833
       7    C3      20.866947   17.476867   22.663712 C.3        1 MOL1        -0.1684
       8    H5      21.717289   16.843236   22.377385 H          1 MOL1         0.0833
       9    H6      20.160747   16.807737   23.173875 H          1 MOL1         0.0833
      10    C4      21.401873   18.522045   23.680257 C.3        1 MOL1        -0.1760
      11    H7      21.947576   17.972916   24.458694 H          1 MOL1         0.0833
      12    H8      22.183885   19.119431   23.203456 H          1 MOL1         0.0833
      13    C5      20.369060   19.448852   24.386394 C.3        1 MOL1         0.1219
      14    H9      20.900642   20.353310   24.715243 H          1 MOL1         0.0790
      15    C6      19.128237   19.895318   23.573026 C.3        1 MOL1        -0.1760
      16    H10     18.550054   19.011168   23.289295 H          1 MOL1         0.0833
      17    H11     18.459974   20.432404   24.259021 H          1 MOL1         0.0833
      18    C7      19.358678   20.824992   22.343835 C.3        1 MOL1        -0.1684
      19    H12     19.374227   21.859710   22.712553 H          1 MOL1         0.0833
      20    H13     18.483632   20.763108   21.682938 H          1 MOL1         0.0833
      21    C8      20.647583   20.624526   21.504055 C.3        1 MOL1        -0.1684
      22    H14     21.523845   20.805144   22.134545 H          1 MOL1         0.0833
      23    H15     20.691582   21.437155   20.766101 H          1 MOL1         0.0833
      24    O1      19.885369   18.765317   25.537483 O.3        1 MOL1        -0.5508
      25    H16     20.668423   18.529411   26.076388 H          1 MOL1         0.3780
@<TRIPOS>BOND
    1     1     2    1
    2     1     3    1
    3     1     4    1
    4     4     5    1
    5     4     6    1
    6     4     7    1
    7     7     8    1
    8     7     9    1
    9     7    10    1
   10    10    11    1
   11    10    12    1
   12    10    13    1
   13    13    14    1
   14    13    15    1
   15    15    16    1
   16    15    17    1
   17    15    18    1
   18    18    19    1
   19    18    20    1
   20     1    21    1
   21    18    21    1
   22    21    22    1
   23    21    23    1
   24    13    24    1
   25    24    25    1
@<TRIPOS>SUBSTRUCTURE
       1 MOL1            1 RESIDUE      1      MOL     
@<SCITEGIC>MOL_PROPERTY
VM2 Rank
SciTegic.value.IntegerValue
107

@<SCITEGIC>MOL_PROPERTY
Conf_Id
SciTegic.value.IntegerValue
1633

@<SCITEGIC>MOL_PROPERTY
Probability
SciTegic.value.DoubleValue
0.00

@<SCITEGIC>MOL_PROPERTY
Sum Probability
SciTegic.value.DoubleValue
99.99

@<SCITEGIC>MOL_PROPERTY
Delta G
SciTegic.value.DoubleValue
4.618

@<SCITEGIC>MOL_PROPERTY
G
SciTegic.value.DoubleValue
66.694

@<SCITEGIC>MOL_PROPERTY
E
SciTegic.value.DoubleValue
34.034

@<SCITEGIC>MOL_PROPERTY
-TS
SciTegic.value.DoubleValue
32.660

@<SCITEGIC>MOL_PROPERTY
U+W
SciTegic.value.DoubleValue
13.466

@<SCITEGIC>MOL_PROPERTY
U
SciTegic.value.DoubleValue
15.643

@<SCITEGIC>MOL_PROPERTY
W
SciTegic.value.DoubleValue
-2.177

@<SCITEGIC>MOL_PROPERTY
W(PB)
SciTegic.value.DoubleValue
-4.308

@<SCITEGIC>MOL_PROPERTY
W(SA)
SciTegic.value.DoubleValue
2.131

@<SCITEGIC>MOL_PROPERTY
Valence
SciTegic.value.DoubleValue
18.916

@<SCITEGIC>MOL_PROPERTY
Coulomb
SciTegic.value.DoubleValue
-7.506

@<SCITEGIC>MOL_PROPERTY
VdW
SciTegic.value.DoubleValue
4.232

@<SCITEGIC>MOL_PROPERTY
VdW6
SciTegic.value.DoubleValue
-13.632

@<SCITEGIC>MOL_PROPERTY
VdW12
SciTegic.value.DoubleValue
17.864

@<SCITEGIC>MOL_PROPERTY
Bond
SciTegic.value.DoubleValue
0.735

@<SCITEGIC>MOL_PROPERTY
Angle
SciTegic.value.DoubleValue
9.140

@<SCITEGIC>MOL_PROPERTY
Pdih
SciTegic.value.DoubleValue
9.042

@<SCITEGIC>MOL_PROPERTY
Idih
SciTegic.value.DoubleValue
0.000

@<SCITEGIC>MOL_PROPERTY
Tether
SciTegic.value.DoubleValue
0.000

@<TRIPOS>MOLECULE
guest-s17_vm2.mol2 : vm2 ligand conformer 108
          25          25           1
SMALL
USER_CHARGES
 
@<TRIPOS>ATOM
       1    C1      20.108255   19.106561   20.654847 C.3        1 MOL1        -0.1684
       2    H1      19.356722   18.443517   20.205161 H          1 MOL1         0.0833
       3    H2      20.534545   19.685144   19.824115 H          1 MOL1         0.0833
       4    C2      21.233735   18.238548   21.275252 C.3        1 MOL1        -0.1684
       5    H3      22.154494   18.825476   21.385227 H          1 MOL1         0.0833
       6    H4      21.482770   17.458895   20.542429 H          1 MOL1         0.0833
       7    C3      20.881745   17.547448   22.616919 C.3        1 MOL1        -0.1684
       8    H5      21.429101   16.595099   22.632402 H          1 MOL1         0.0833
       9    H6      19.821156   17.265986   22.640394 H          1 MOL1         0.0833
      10    C4      21.309762   18.329346   23.897984 C.3        1 MOL1        -0.1760
      11    H7      21.579798   17.579132   24.652612 H          1 MOL1         0.0833
      12    H8      22.237733   18.885539   23.714583 H          1 MOL1         0.0833
      13    C5      20.267651   19.263657   24.571536 C.3        1 MOL1         0.1219
      14    H9      20.598917   19.381337   25.613544 H          1 MOL1         0.0790
      15    C6      20.161412   20.711522   24.017026 C.3        1 MOL1        -0.1760
      16    H10     19.195922   21.132130   24.327980 H          1 MOL1         0.0833
      17    H11     20.921026   21.320453   24.523825 H          1 MOL1         0.0833
      18    C7      20.334143   20.926965   22.491667 C.3        1 MOL1        -0.1684
      19    H12     21.381727   20.764011   22.213614 H          1 MOL1         0.0833
      20    H13     20.147619   21.987129   22.273424 H          1 MOL1         0.0833
      21    C8      19.381986   20.072196   21.620215 C.3        1 MOL1        -0.1684
      22    H14     18.744046   20.741569   21.027533 H          1 MOL1         0.0833
      23    H15     18.686880   19.502859   22.247685 H          1 MOL1         0.0833
      24    O1      18.985310   18.646757   24.614555 O.3        1 MOL1        -0.5508
      25    H16     19.132962   17.723388   24.902885 H          1 MOL1         0.3780
@<TRIPOS>BOND
    1     1     2    1
    2     1     3    1
    3     1     4    1
    4     4     5    1
    5     4     6    1
    6     4     7    1
    7     7     8    1
    8     7     9    1
    9     7    10    1
   10    10    11    1
   11    10    12    1
   12    10    13    1
   13    13    14    1
   14    13    15    1
   15    15    16    1
   16    15    17    1
   17    15    18    1
   18    18    19    1
   19    18    20    1
   20     1    21    1
   21    18    21    1
   22    21    22    1
   23    21    23    1
   24    13    24    1
   25    24    25    1
@<TRIPOS>SUBSTRUCTURE
       1 MOL1            1 RESIDUE      1      MOL     
@<SCITEGIC>MOL_PROPERTY
VM2 Rank
SciTegic.value.IntegerValue
108

@<SCITEGIC>MOL_PROPERTY
Conf_Id
SciTegic.value.IntegerValue
1667

@<SCITEGIC>MOL_PROPERTY
Probability
SciTegic.value.DoubleValue
0.00

@<SCITEGIC>MOL_PROPERTY
Sum Probability
SciTegic.value.DoubleValue
99.99

@<SCITEGIC>MOL_PROPERTY
Delta G
SciTegic.value.DoubleValue
4.678

@<SCITEGIC>MOL_PROPERTY
G
SciTegic.value.DoubleValue
66.753

@<SCITEGIC>MOL_PROPERTY
E
SciTegic.value.DoubleValue
34.240

@<SCITEGIC>MOL_PROPERTY
-TS
SciTegic.value.DoubleValue
32.513

@<SCITEGIC>MOL_PROPERTY
U+W
SciTegic.value.DoubleValue
13.672

@<SCITEGIC>MOL_PROPERTY
U
SciTegic.value.DoubleValue
15.604

@<SCITEGIC>MOL_PROPERTY
W
SciTegic.value.DoubleValue
-1.932

@<SCITEGIC>MOL_PROPERTY
W(PB)
SciTegic.value.DoubleValue
-4.048

@<SCITEGIC>MOL_PROPERTY
W(SA)
SciTegic.value.DoubleValue
2.116

@<SCITEGIC>MOL_PROPERTY
Valence
SciTegic.value.DoubleValue
19.784

@<SCITEGIC>MOL_PROPERTY
Coulomb
SciTegic.value.DoubleValue
-7.373

@<SCITEGIC>MOL_PROPERTY
VdW
SciTegic.value.DoubleValue
3.193

@<SCITEGIC>MOL_PROPERTY
VdW6
SciTegic.value.DoubleValue
-13.422

@<SCITEGIC>MOL_PROPERTY
VdW12
SciTegic.value.DoubleValue
16.615

@<SCITEGIC>MOL_PROPERTY
Bond
SciTegic.value.DoubleValue
0.544

@<SCITEGIC>MOL_PROPERTY
Angle
SciTegic.value.DoubleValue
5.996

@<SCITEGIC>MOL_PROPERTY
Pdih
SciTegic.value.DoubleValue
13.243

@<SCITEGIC>MOL_PROPERTY
Idih
SciTegic.value.DoubleValue
0.000

@<SCITEGIC>MOL_PROPERTY
Tether
SciTegic.value.DoubleValue
0.000

@<TRIPOS>MOLECULE
guest-s17_vm2.mol2 : vm2 ligand conformer 109
          25          25           1
SMALL
USER_CHARGES
 
@<TRIPOS>ATOM
       1    C1      20.171181   19.142965   20.649072 C.3        1 MOL1        -0.1684
       2    H1      19.187658   19.073808   20.164772 H          1 MOL1         0.0833
       3    H2      20.910975   19.041491   19.843464 H          1 MOL1         0.0833
       4    C2      20.315373   17.946578   21.618463 C.3        1 MOL1        -0.1684
       5    H3      19.400656   17.850413   22.214350 H          1 MOL1         0.0833
       6    H4      20.364866   17.023134   21.025924 H          1 MOL1         0.0833
       7    C3      21.561447   18.023449   22.533916 C.3        1 MOL1        -0.1684
       8    H5      22.190071   18.884266   22.278717 H          1 MOL1         0.0833
       9    H6      22.192772   17.146657   22.336344 H          1 MOL1         0.0833
      10    C4      21.233875   18.049654   24.048835 C.3        1 MOL1        -0.1760
      11    H7      20.845109   17.066379   24.345149 H          1 MOL1         0.0833
      12    H8      22.182576   18.162490   24.589104 H          1 MOL1         0.0833
      13    C5      20.258568   19.140986   24.571191 C.3        1 MOL1         0.1219
      14    H9      20.538494   19.292918   25.623771 H          1 MOL1         0.0790
      15    C6      20.348058   20.539925   23.902189 C.3        1 MOL1        -0.1760
      16    H10     19.977279   21.257899   24.645317 H          1 MOL1         0.0833
      17    H11     21.401334   20.810590   23.755684 H          1 MOL1         0.0833
      18    C7      19.535803   20.785684   22.592405 C.3        1 MOL1        -0.1684
      19    H12     19.241358   21.844015   22.599061 H          1 MOL1         0.0833
      20    H13     18.590621   20.227878   22.582245 H          1 MOL1         0.0833
      21    C8      20.321335   20.553021   21.276962 C.3        1 MOL1        -0.1684
      22    H14     19.966604   21.278676   20.532318 H          1 MOL1         0.0833
      23    H15     21.381223   20.796593   21.424234 H          1 MOL1         0.0833
      24    O1      18.918360   18.660738   24.566968 O.3        1 MOL1        -0.5508
      25    H16     18.354685   19.413697   24.836904 H          1 MOL1         0.3780
@<TRIPOS>BOND
    1     1     2    1
    2     1     3    1
    3     1     4    1
    4     4     5    1
    5     4     6    1
    6     4     7    1
    7     7     8    1
    8     7     9    1
    9     7    10    1
   10    10    11    1
   11    10    12    1
   12    10    13    1
   13    13    14    1
   14    13    15    1
   15    15    16    1
   16    15    17    1
   17    15    18    1
   18    18    19    1
   19    18    20    1
   20     1    21    1
   21    18    21    1
   22    21    22    1
   23    21    23    1
   24    13    24    1
   25    24    25    1
@<TRIPOS>SUBSTRUCTURE
       1 MOL1            1 RESIDUE      1      MOL     
@<SCITEGIC>MOL_PROPERTY
VM2 Rank
SciTegic.value.IntegerValue
109

@<SCITEGIC>MOL_PROPERTY
Conf_Id
SciTegic.value.IntegerValue
1192

@<SCITEGIC>MOL_PROPERTY
Probability
SciTegic.value.DoubleValue
0.00

@<SCITEGIC>MOL_PROPERTY
Sum Probability
SciTegic.value.DoubleValue
99.99

@<SCITEGIC>MOL_PROPERTY
Delta G
SciTegic.value.DoubleValue
4.700

@<SCITEGIC>MOL_PROPERTY
G
SciTegic.value.DoubleValue
66.776

@<SCITEGIC>MOL_PROPERTY
E
SciTegic.value.DoubleValue
34.262

@<SCITEGIC>MOL_PROPERTY
-TS
SciTegic.value.DoubleValue
32.514

@<SCITEGIC>MOL_PROPERTY
U+W
SciTegic.value.DoubleValue
13.695

@<SCITEGIC>MOL_PROPERTY
U
SciTegic.value.DoubleValue
15.604

@<SCITEGIC>MOL_PROPERTY
W
SciTegic.value.DoubleValue
-1.910

@<SCITEGIC>MOL_PROPERTY
W(PB)
SciTegic.value.DoubleValue
-4.058

@<SCITEGIC>MOL_PROPERTY
W(SA)
SciTegic.value.DoubleValue
2.148

@<SCITEGIC>MOL_PROPERTY
Valence
SciTegic.value.DoubleValue
19.784

@<SCITEGIC>MOL_PROPERTY
Coulomb
SciTegic.value.DoubleValue
-7.373

@<SCITEGIC>MOL_PROPERTY
VdW
SciTegic.value.DoubleValue
3.193

@<SCITEGIC>MOL_PROPERTY
VdW6
SciTegic.value.DoubleValue
-13.422

@<SCITEGIC>MOL_PROPERTY
VdW12
SciTegic.value.DoubleValue
16.615

@<SCITEGIC>MOL_PROPERTY
Bond
SciTegic.value.DoubleValue
0.544

@<SCITEGIC>MOL_PROPERTY
Angle
SciTegic.value.DoubleValue
5.996

@<SCITEGIC>MOL_PROPERTY
Pdih
SciTegic.value.DoubleValue
13.244

@<SCITEGIC>MOL_PROPERTY
Idih
SciTegic.value.DoubleValue
0.000

@<SCITEGIC>MOL_PROPERTY
Tether
SciTegic.value.DoubleValue
0.000

@<TRIPOS>MOLECULE
guest-s17_vm2.mol2 : vm2 ligand conformer 110
          25          25           1
SMALL
USER_CHARGES
 
@<TRIPOS>ATOM
       1    C1      20.726712   19.502972   20.723668 C.3        1 MOL1        -0.1684
       2    H1      20.507177   19.041242   19.751355 H          1 MOL1         0.0833
       3    H2      21.328636   20.392896   20.495492 H          1 MOL1         0.0833
       4    C2      21.598781   18.496569   21.529968 C.3        1 MOL1        -0.1684
       5    H3      22.240965   17.975663   20.806682 H          1 MOL1         0.0833
       6    H4      22.311978   19.025532   22.170011 H          1 MOL1         0.0833
       7    C3      20.860760   17.416159   22.363504 C.3        1 MOL1        -0.1684
       8    H5      21.627157   16.728247   22.746008 H          1 MOL1         0.0833
       9    H6      20.232202   16.811557   21.695849 H          1 MOL1         0.0833
      10    C4      20.003497   17.882172   23.578466 C.3        1 MOL1        -0.1760
      11    H7      18.965947   18.055024   23.277471 H          1 MOL1         0.0833
      12    H8      19.936958   17.027384   24.264101 H          1 MOL1         0.0833
      13    C5      20.506080   19.104261   24.388430 C.3        1 MOL1         0.1219
      14    H9      21.530869   18.891298   24.724924 H          1 MOL1         0.0790
      15    C6      20.523437   20.487011   23.673691 C.3        1 MOL1        -0.1760
      16    H10     20.467379   21.259558   24.452251 H          1 MOL1         0.0833
      17    H11     21.499386   20.664987   23.213707 H          1 MOL1         0.0833
      18    C7      19.405748   20.788234   22.638031 C.3        1 MOL1        -0.1684
      19    H12     19.512944   21.842242   22.348156 H          1 MOL1         0.0833
      20    H13     18.428405   20.718345   23.134620 H          1 MOL1         0.0833
      21    C8      19.369051   19.945689   21.329609 C.3        1 MOL1        -0.1684
      22    H14     18.848041   20.547577   20.572649 H          1 MOL1         0.0833
      23    H15     18.723661   19.069643   21.448933 H          1 MOL1         0.0833
      24    O1      19.669934   19.219935   25.534634 O.3        1 MOL1        -0.5508
      25    H16     19.722400   18.365346   26.010414 H          1 MOL1         0.3780
@<TRIPOS>BOND
    1     1     2    1
    2     1     3    1
    3     1     4    1
    4     4     5    1
    5     4     6    1
    6     4     7    1
    7     7     8    1
    8     7     9    1
    9     7    10    1
   10    10    11    1
   11    10    12    1
   12    10    13    1
   13    13    14    1
   14    13    15    1
   15    15    16    1
   16    15    17    1
   17    15    18    1
   18    18    19    1
   19    18    20    1
   20     1    21    1
   21    18    21    1
   22    21    22    1
   23    21    23    1
   24    13    24    1
   25    24    25    1
@<TRIPOS>SUBSTRUCTURE
       1 MOL1            1 RESIDUE      1      MOL     
@<SCITEGIC>MOL_PROPERTY
VM2 Rank
SciTegic.value.IntegerValue
110

@<SCITEGIC>MOL_PROPERTY
Conf_Id
SciTegic.value.IntegerValue
1595

@<SCITEGIC>MOL_PROPERTY
Probability
SciTegic.value.DoubleValue
0.00

@<SCITEGIC>MOL_PROPERTY
Sum Probability
SciTegic.value.DoubleValue
99.99

@<SCITEGIC>MOL_PROPERTY
Delta G
SciTegic.value.DoubleValue
4.702

@<SCITEGIC>MOL_PROPERTY
G
SciTegic.value.DoubleValue
66.777

@<SCITEGIC>MOL_PROPERTY
E
SciTegic.value.DoubleValue
34.090

@<SCITEGIC>MOL_PROPERTY
-TS
SciTegic.value.DoubleValue
32.688

@<SCITEGIC>MOL_PROPERTY
U+W
SciTegic.value.DoubleValue
13.522

@<SCITEGIC>MOL_PROPERTY
U
SciTegic.value.DoubleValue
15.675

@<SCITEGIC>MOL_PROPERTY
W
SciTegic.value.DoubleValue
-2.153

@<SCITEGIC>MOL_PROPERTY
W(PB)
SciTegic.value.DoubleValue
-4.273

@<SCITEGIC>MOL_PROPERTY
W(SA)
SciTegic.value.DoubleValue
2.120

@<SCITEGIC>MOL_PROPERTY
Valence
SciTegic.value.DoubleValue
18.885

@<SCITEGIC>MOL_PROPERTY
Coulomb
SciTegic.value.DoubleValue
-7.469

@<SCITEGIC>MOL_PROPERTY
VdW
SciTegic.value.DoubleValue
4.260

@<SCITEGIC>MOL_PROPERTY
VdW6
SciTegic.value.DoubleValue
-13.645

@<SCITEGIC>MOL_PROPERTY
VdW12
SciTegic.value.DoubleValue
17.904

@<SCITEGIC>MOL_PROPERTY
Bond
SciTegic.value.DoubleValue
0.733

@<SCITEGIC>MOL_PROPERTY
Angle
SciTegic.value.DoubleValue
9.054

@<SCITEGIC>MOL_PROPERTY
Pdih
SciTegic.value.DoubleValue
9.097

@<SCITEGIC>MOL_PROPERTY
Idih
SciTegic.value.DoubleValue
0.000

@<SCITEGIC>MOL_PROPERTY
Tether
SciTegic.value.DoubleValue
0.000

@<TRIPOS>MOLECULE
guest-s17_vm2.mol2 : vm2 ligand conformer 111
          25          25           1
SMALL
USER_CHARGES
 
@<TRIPOS>ATOM
       1    C1      20.800561   19.289853   20.720720 C.3        1 MOL1        -0.1684
       2    H1      20.308920   19.425446   19.747743 H          1 MOL1         0.0833
       3    H2      21.862758   19.129642   20.491780 H          1 MOL1         0.0833
       4    C2      20.212234   17.998480   21.347324 C.3        1 MOL1        -0.1684
       5    H3      20.302253   17.196781   20.601747 H          1 MOL1         0.0833
       6    H4      19.130611   18.115667   21.468081 H          1 MOL1         0.0833
       7    C3      20.862311   17.475850   22.661652 C.3        1 MOL1        -0.1684
       8    H5      21.711335   16.839068   22.378597 H          1 MOL1         0.0833
       9    H6      20.152318   16.809466   23.170108 H          1 MOL1         0.0833
      10    C4      21.397757   18.518716   23.680613 C.3        1 MOL1        -0.1760
      11    H7      21.932056   17.967190   24.465771 H          1 MOL1         0.0833
      12    H8      22.186632   19.111648   23.209607 H          1 MOL1         0.0833
      13    C5      20.368118   19.449899   24.384808 C.3        1 MOL1         0.1219
      14    H9      20.903907   20.354428   24.706572 H          1 MOL1         0.0790
      15    C6      19.124964   19.892457   23.571886 C.3        1 MOL1        -0.1760
      16    H10     18.551072   19.006117   23.285472 H          1 MOL1         0.0833
      17    H11     18.451485   20.430496   24.251683 H          1 MOL1         0.0833
      18    C7      19.356497   20.821599   22.342540 C.3        1 MOL1        -0.1684
      19    H12     19.367644   21.856875   22.709930 H          1 MOL1         0.0833
      20    H13     18.484181   20.756462   21.678301 H          1 MOL1         0.0833
      21    C8      20.649330   20.624299   21.508030 C.3        1 MOL1        -0.1684
      22    H14     21.522916   20.802557   22.142992 H          1 MOL1         0.0833
      23    H15     20.696565   21.439042   20.772606 H          1 MOL1         0.0833
      24    O1      19.892227   18.771846   25.542426 O.3        1 MOL1        -0.5508
      25    H16     19.298686   19.394471   26.010921 H          1 MOL1         0.3780
@<TRIPOS>BOND
    1     1     2    1
    2     1     3    1
    3     1     4    1
    4     4     5    1
    5     4     6    1
    6     4     7    1
    7     7     8    1
    8     7     9    1
    9     7    10    1
   10    10    11    1
   11    10    12    1
   12    10    13    1
   13    13    14    1
   14    13    15    1
   15    15    16    1
   16    15    17    1
   17    15    18    1
   18    18    19    1
   19    18    20    1
   20     1    21    1
   21    18    21    1
   22    21    22    1
   23    21    23    1
   24    13    24    1
   25    24    25    1
@<TRIPOS>SUBSTRUCTURE
       1 MOL1            1 RESIDUE      1      MOL     
@<SCITEGIC>MOL_PROPERTY
VM2 Rank
SciTegic.value.IntegerValue
111

@<SCITEGIC>MOL_PROPERTY
Conf_Id
SciTegic.value.IntegerValue
1540

@<SCITEGIC>MOL_PROPERTY
Probability
SciTegic.value.DoubleValue
0.00

@<SCITEGIC>MOL_PROPERTY
Sum Probability
SciTegic.value.DoubleValue
99.99

@<SCITEGIC>MOL_PROPERTY
Delta G
SciTegic.value.DoubleValue
4.714

@<SCITEGIC>MOL_PROPERTY
G
SciTegic.value.DoubleValue
66.790

@<SCITEGIC>MOL_PROPERTY
E
SciTegic.value.DoubleValue
34.102

@<SCITEGIC>MOL_PROPERTY
-TS
SciTegic.value.DoubleValue
32.688

@<SCITEGIC>MOL_PROPERTY
U+W
SciTegic.value.DoubleValue
13.534

@<SCITEGIC>MOL_PROPERTY
U
SciTegic.value.DoubleValue
15.675

@<SCITEGIC>MOL_PROPERTY
W
SciTegic.value.DoubleValue
-2.141

@<SCITEGIC>MOL_PROPERTY
W(PB)
SciTegic.value.DoubleValue
-4.263

@<SCITEGIC>MOL_PROPERTY
W(SA)
SciTegic.value.DoubleValue
2.122

@<SCITEGIC>MOL_PROPERTY
Valence
SciTegic.value.DoubleValue
18.885

@<SCITEGIC>MOL_PROPERTY
Coulomb
SciTegic.value.DoubleValue
-7.469

@<SCITEGIC>MOL_PROPERTY
VdW
SciTegic.value.DoubleValue
4.260

@<SCITEGIC>MOL_PROPERTY
VdW6
SciTegic.value.DoubleValue
-13.645

@<SCITEGIC>MOL_PROPERTY
VdW12
SciTegic.value.DoubleValue
17.904

@<SCITEGIC>MOL_PROPERTY
Bond
SciTegic.value.DoubleValue
0.733

@<SCITEGIC>MOL_PROPERTY
Angle
SciTegic.value.DoubleValue
9.054

@<SCITEGIC>MOL_PROPERTY
Pdih
SciTegic.value.DoubleValue
9.097

@<SCITEGIC>MOL_PROPERTY
Idih
SciTegic.value.DoubleValue
0.000

@<SCITEGIC>MOL_PROPERTY
Tether
SciTegic.value.DoubleValue
0.000

@<TRIPOS>MOLECULE
guest-s17_vm2.mol2 : vm2 ligand conformer 112
          25          25           1
SMALL
USER_CHARGES
 
@<TRIPOS>ATOM
       1    C1      20.102442   19.108745   20.756779 C.3        1 MOL1        -0.1684
       2    H1      19.067266   19.223920   20.408335 H          1 MOL1         0.0833
       3    H2      20.691812   18.888947   19.856217 H          1 MOL1         0.0833
       4    C2      20.184330   17.860122   21.682567 C.3        1 MOL1        -0.1684
       5    H3      19.258605   17.738892   22.253910 H          1 MOL1         0.0833
       6    H4      20.200483   16.975925   21.031075 H          1 MOL1         0.0833
       7    C3      21.396292   17.753887   22.645457 C.3        1 MOL1        -0.1684
       8    H5      22.324287   17.746412   22.058250 H          1 MOL1         0.0833
       9    H6      21.340882   16.764570   23.119535 H          1 MOL1         0.0833
      10    C4      21.528592   18.810020   23.785223 C.3        1 MOL1        -0.1760
      11    H7      22.152594   18.365057   24.571036 H          1 MOL1         0.0833
      12    H8      22.123791   19.663545   23.449378 H          1 MOL1         0.0833
      13    C5      20.236343   19.341906   24.457548 C.3        1 MOL1         0.1219
      14    H9      20.568612   20.019861   25.256924 H          1 MOL1         0.0790
      15    C6      19.240955   20.150874   23.579661 C.3        1 MOL1        -0.1760
      16    H10     18.497871   19.491861   23.121079 H          1 MOL1         0.0833
      17    H11     18.649580   20.768082   24.268072 H          1 MOL1         0.0833
      18    C7      19.828056   21.098423   22.497748 C.3        1 MOL1        -0.1684
      19    H12     20.467458   21.848313   22.982705 H          1 MOL1         0.0833
      20    H13     18.985086   21.662076   22.075354 H          1 MOL1         0.0833
      21    C8      20.608392   20.467642   21.307638 C.3        1 MOL1        -0.1684
      22    H14     21.675698   20.390431   21.536518 H          1 MOL1         0.0833
      23    H15     20.575737   21.191499   20.481973 H          1 MOL1         0.0833
      24    O1      19.538599   18.251380   25.047381 O.3        1 MOL1        -0.5508
      25    H16     20.205157   17.723940   25.532648 H          1 MOL1         0.3780
@<TRIPOS>BOND
    1     1     2    1
    2     1     3    1
    3     1     4    1
    4     4     5    1
    5     4     6    1
    6     4     7    1
    7     7     8    1
    8     7     9    1
    9     7    10    1
   10    10    11    1
   11    10    12    1
   12    10    13    1
   13    13    14    1
   14    13    15    1
   15    15    16    1
   16    15    17    1
   17    15    18    1
   18    18    19    1
   19    18    20    1
   20     1    21    1
   21    18    21    1
   22    21    22    1
   23    21    23    1
   24    13    24    1
   25    24    25    1
@<TRIPOS>SUBSTRUCTURE
       1 MOL1            1 RESIDUE      1      MOL     
@<SCITEGIC>MOL_PROPERTY
VM2 Rank
SciTegic.value.IntegerValue
112

@<SCITEGIC>MOL_PROPERTY
Conf_Id
SciTegic.value.IntegerValue
1914

@<SCITEGIC>MOL_PROPERTY
Probability
SciTegic.value.DoubleValue
0.00

@<SCITEGIC>MOL_PROPERTY
Sum Probability
SciTegic.value.DoubleValue
100.00

@<SCITEGIC>MOL_PROPERTY
Delta G
SciTegic.value.DoubleValue
4.752

@<SCITEGIC>MOL_PROPERTY
G
SciTegic.value.DoubleValue
66.827

@<SCITEGIC>MOL_PROPERTY
E
SciTegic.value.DoubleValue
34.160

@<SCITEGIC>MOL_PROPERTY
-TS
SciTegic.value.DoubleValue
32.667

@<SCITEGIC>MOL_PROPERTY
U+W
SciTegic.value.DoubleValue
13.592

@<SCITEGIC>MOL_PROPERTY
U
SciTegic.value.DoubleValue
15.621

@<SCITEGIC>MOL_PROPERTY
W
SciTegic.value.DoubleValue
-2.029

@<SCITEGIC>MOL_PROPERTY
W(PB)
SciTegic.value.DoubleValue
-4.146

@<SCITEGIC>MOL_PROPERTY
W(SA)
SciTegic.value.DoubleValue
2.117

@<SCITEGIC>MOL_PROPERTY
Valence
SciTegic.value.DoubleValue
18.961

@<SCITEGIC>MOL_PROPERTY
Coulomb
SciTegic.value.DoubleValue
-7.191

@<SCITEGIC>MOL_PROPERTY
VdW
SciTegic.value.DoubleValue
3.851

@<SCITEGIC>MOL_PROPERTY
VdW6
SciTegic.value.DoubleValue
-13.971

@<SCITEGIC>MOL_PROPERTY
VdW12
SciTegic.value.DoubleValue
17.821

@<SCITEGIC>MOL_PROPERTY
Bond
SciTegic.value.DoubleValue
0.726

@<SCITEGIC>MOL_PROPERTY
Angle
SciTegic.value.DoubleValue
9.583

@<SCITEGIC>MOL_PROPERTY
Pdih
SciTegic.value.DoubleValue
8.652

@<SCITEGIC>MOL_PROPERTY
Idih
SciTegic.value.DoubleValue
0.000

@<SCITEGIC>MOL_PROPERTY
Tether
SciTegic.value.DoubleValue
0.000

@<TRIPOS>MOLECULE
guest-s17_vm2.mol2 : vm2 ligand conformer 113
          25          25           1
SMALL
USER_CHARGES
 
@<TRIPOS>ATOM
       1    C1      20.107725   19.107602   20.654248 C.3        1 MOL1        -0.1684
       2    H1      19.357245   18.443676   20.204106 H          1 MOL1         0.0833
       3    H2      20.533275   19.687557   19.824098 H          1 MOL1         0.0833
       4    C2      21.234199   18.240896   21.274734 C.3        1 MOL1        -0.1684
       5    H3      21.485041   17.462209   20.541534 H          1 MOL1         0.0833
       6    H4      22.154067   18.828810   21.386560 H          1 MOL1         0.0833
       7    C3      20.882041   17.548073   22.615573 C.3        1 MOL1        -0.1684
       8    H5      21.427439   16.594750   22.630019 H          1 MOL1         0.0833
       9    H6      19.820895   17.268115   22.643070 H          1 MOL1         0.0833
      10    C4      21.308660   18.325394   23.899657 C.3        1 MOL1        -0.1760
      11    H7      21.563273   17.570259   24.654571 H          1 MOL1         0.0833
      12    H8      22.242200   18.874487   23.724276 H          1 MOL1         0.0833
      13    C5      20.267476   19.262558   24.571362 C.3        1 MOL1         0.1219
      14    H9      20.599649   19.379337   25.613188 H          1 MOL1         0.0790
      15    C6      20.167993   20.711428   24.016522 C.3        1 MOL1        -0.1760
      16    H10     19.211606   21.147437   24.333221 H          1 MOL1         0.0833
      17    H11     20.938807   21.312424   24.516250 H          1 MOL1         0.0833
      18    C7      20.333255   20.926485   22.490615 C.3        1 MOL1        -0.1684
      19    H12     21.380165   20.764984   22.209107 H          1 MOL1         0.0833
      20    H13     20.145458   21.986536   22.272700 H          1 MOL1         0.0833
      21    C8      19.380321   20.070832   21.620966 C.3        1 MOL1        -0.1684
      22    H14     18.687926   19.498354   22.248151 H          1 MOL1         0.0833
      23    H15     18.740164   20.739259   21.029566 H          1 MOL1         0.0833
      24    O1      18.982330   18.649731   24.616322 O.3        1 MOL1        -0.5508
      25    H16     18.388969   19.271841   25.083618 H          1 MOL1         0.3780
@<TRIPOS>BOND
    1     1     2    1
    2     1     3    1
    3     1     4    1
    4     4     5    1
    5     4     6    1
    6     4     7    1
    7     7     8    1
    8     7     9    1
    9     7    10    1
   10    10    11    1
   11    10    12    1
   12    10    13    1
   13    13    14    1
   14    13    15    1
   15    15    16    1
   16    15    17    1
   17    15    18    1
   18    18    19    1
   19    18    20    1
   20     1    21    1
   21    18    21    1
   22    21    22    1
   23    21    23    1
   24    13    24    1
   25    24    25    1
@<TRIPOS>SUBSTRUCTURE
       1 MOL1            1 RESIDUE      1      MOL     
@<SCITEGIC>MOL_PROPERTY
VM2 Rank
SciTegic.value.IntegerValue
113

@<SCITEGIC>MOL_PROPERTY
Conf_Id
SciTegic.value.IntegerValue
1027

@<SCITEGIC>MOL_PROPERTY
Probability
SciTegic.value.DoubleValue
0.00

@<SCITEGIC>MOL_PROPERTY
Sum Probability
SciTegic.value.DoubleValue
100.00

@<SCITEGIC>MOL_PROPERTY
Delta G
SciTegic.value.DoubleValue
5.059

@<SCITEGIC>MOL_PROPERTY
G
SciTegic.value.DoubleValue
67.134

@<SCITEGIC>MOL_PROPERTY
E
SciTegic.value.DoubleValue
34.614

@<SCITEGIC>MOL_PROPERTY
-TS
SciTegic.value.DoubleValue
32.520

@<SCITEGIC>MOL_PROPERTY
U+W
SciTegic.value.DoubleValue
14.047

@<SCITEGIC>MOL_PROPERTY
U
SciTegic.value.DoubleValue
16.200

@<SCITEGIC>MOL_PROPERTY
W
SciTegic.value.DoubleValue
-2.154

@<SCITEGIC>MOL_PROPERTY
W(PB)
SciTegic.value.DoubleValue
-4.283

@<SCITEGIC>MOL_PROPERTY
W(SA)
SciTegic.value.DoubleValue
2.129

@<SCITEGIC>MOL_PROPERTY
Valence
SciTegic.value.DoubleValue
19.712

@<SCITEGIC>MOL_PROPERTY
Coulomb
SciTegic.value.DoubleValue
-6.683

@<SCITEGIC>MOL_PROPERTY
VdW
SciTegic.value.DoubleValue
3.172

@<SCITEGIC>MOL_PROPERTY
VdW6
SciTegic.value.DoubleValue
-13.375

@<SCITEGIC>MOL_PROPERTY
VdW12
SciTegic.value.DoubleValue
16.546

@<SCITEGIC>MOL_PROPERTY
Bond
SciTegic.value.DoubleValue
0.548

@<SCITEGIC>MOL_PROPERTY
Angle
SciTegic.value.DoubleValue
6.059

@<SCITEGIC>MOL_PROPERTY
Pdih
SciTegic.value.DoubleValue
13.105

@<SCITEGIC>MOL_PROPERTY
Idih
SciTegic.value.DoubleValue
0.000

@<SCITEGIC>MOL_PROPERTY
Tether
SciTegic.value.DoubleValue
0.000

@<TRIPOS>MOLECULE
guest-s17_vm2.mol2 : vm2 ligand conformer 114
          25          25           1
SMALL
USER_CHARGES
 
@<TRIPOS>ATOM
       1    C1      20.171434   19.141658   20.648503 C.3        1 MOL1        -0.1684
       2    H1      19.188013   19.073661   20.163831 H          1 MOL1         0.0833
       3    H2      20.911623   19.038759   19.843443 H          1 MOL1         0.0833
       4    C2      20.313356   17.946238   21.619223 C.3        1 MOL1        -0.1684
       5    H3      19.398362   17.854067   22.214870 H          1 MOL1         0.0833
       6    H4      20.360730   17.021851   21.027941 H          1 MOL1         0.0833
       7    C3      21.560691   18.023337   22.532853 C.3        1 MOL1        -0.1684
       8    H5      22.189816   18.882773   22.274161 H          1 MOL1         0.0833
       9    H6      22.191192   17.145830   22.335595 H          1 MOL1         0.0833
      10    C4      21.238629   18.054588   24.048521 C.3        1 MOL1        -0.1760
      11    H7      20.867084   17.066950   24.351187 H          1 MOL1         0.0833
      12    H8      22.189780   18.181063   24.581808 H          1 MOL1         0.0833
      13    C5      20.257772   19.141746   24.570991 C.3        1 MOL1         0.1219
      14    H9      20.537738   19.295058   25.623366 H          1 MOL1         0.0790
      15    C6      20.344332   20.541989   23.903639 C.3        1 MOL1        -0.1760
      16    H10     19.959210   21.252447   24.646529 H          1 MOL1         0.0833
      17    H11     21.396143   20.821692   23.765016 H          1 MOL1         0.0833
      18    C7      19.536282   20.785355   22.591033 C.3        1 MOL1        -0.1684
      19    H12     19.239712   21.842951   22.596529 H          1 MOL1         0.0833
      20    H13     18.591688   20.226009   22.585041 H          1 MOL1         0.0833
      21    C8      20.323028   20.551586   21.276402 C.3        1 MOL1        -0.1684
      22    H14     19.970060   21.277716   20.531415 H          1 MOL1         0.0833
      23    H15     21.382901   20.794026   21.425390 H          1 MOL1         0.0833
      24    O1      18.918475   18.656502   24.568833 O.3        1 MOL1        -0.5508
      25    H16     18.928859   17.796644   25.035735 H          1 MOL1         0.3780
@<TRIPOS>BOND
    1     1     2    1
    2     1     3    1
    3     1     4    1
    4     4     5    1
    5     4     6    1
    6     4     7    1
    7     7     8    1
    8     7     9    1
    9     7    10    1
   10    10    11    1
   11    10    12    1
   12    10    13    1
   13    13    14    1
   14    13    15    1
   15    15    16    1
   16    15    17    1
   17    15    18    1
   18    18    19    1
   19    18    20    1
   20     1    21    1
   21    18    21    1
   22    21    22    1
   23    21    23    1
   24    13    24    1
   25    24    25    1
@<TRIPOS>SUBSTRUCTURE
       1 MOL1            1 RESIDUE      1      MOL     
@<SCITEGIC>MOL_PROPERTY
VM2 Rank
SciTegic.value.IntegerValue
114

@<SCITEGIC>MOL_PROPERTY
Conf_Id
SciTegic.value.IntegerValue
1452

@<SCITEGIC>MOL_PROPERTY
Probability
SciTegic.value.DoubleValue
0.00

@<SCITEGIC>MOL_PROPERTY
Sum Probability
SciTegic.value.DoubleValue
100.00

@<SCITEGIC>MOL_PROPERTY
Delta G
SciTegic.value.DoubleValue
5.102

@<SCITEGIC>MOL_PROPERTY
G
SciTegic.value.DoubleValue
67.177

@<SCITEGIC>MOL_PROPERTY
E
SciTegic.value.DoubleValue
34.657

@<SCITEGIC>MOL_PROPERTY
-TS
SciTegic.value.DoubleValue
32.520

@<SCITEGIC>MOL_PROPERTY
U+W
SciTegic.value.DoubleValue
14.090

@<SCITEGIC>MOL_PROPERTY
U
SciTegic.value.DoubleValue
16.200

@<SCITEGIC>MOL_PROPERTY
W
SciTegic.value.DoubleValue
-2.111

@<SCITEGIC>MOL_PROPERTY
W(PB)
SciTegic.value.DoubleValue
-4.247

@<SCITEGIC>MOL_PROPERTY
W(SA)
SciTegic.value.DoubleValue
2.137

@<SCITEGIC>MOL_PROPERTY
Valence
SciTegic.value.DoubleValue
19.712

@<SCITEGIC>MOL_PROPERTY
Coulomb
SciTegic.value.DoubleValue
-6.683

@<SCITEGIC>MOL_PROPERTY
VdW
SciTegic.value.DoubleValue
3.172

@<SCITEGIC>MOL_PROPERTY
VdW6
SciTegic.value.DoubleValue
-13.375

@<SCITEGIC>MOL_PROPERTY
VdW12
SciTegic.value.DoubleValue
16.546

@<SCITEGIC>MOL_PROPERTY
Bond
SciTegic.value.DoubleValue
0.548

@<SCITEGIC>MOL_PROPERTY
Angle
SciTegic.value.DoubleValue
6.059

@<SCITEGIC>MOL_PROPERTY
Pdih
SciTegic.value.DoubleValue
13.105

@<SCITEGIC>MOL_PROPERTY
Idih
SciTegic.value.DoubleValue
0.000

@<SCITEGIC>MOL_PROPERTY
Tether
SciTegic.value.DoubleValue
0.000

@<TRIPOS>MOLECULE
guest-s17_vm2.mol2 : vm2 ligand conformer 115
          25          25           1
SMALL
USER_CHARGES
 
@<TRIPOS>ATOM
       1    C1      20.090103   19.096849   20.753559 C.3        1 MOL1        -0.1684
       2    H1      19.467641   18.258015   20.414205 H          1 MOL1         0.0833
       3    H2      20.334714   19.665825   19.846302 H          1 MOL1         0.0833
       4    C2      21.426384   18.544725   21.314938 C.3        1 MOL1        -0.1684
       5    H3      22.099394   19.379188   21.534098 H          1 MOL1         0.0833
       6    H4      21.934036   18.014704   20.497546 H          1 MOL1         0.0833
       7    C3      21.349981   17.560354   22.518049 C.3        1 MOL1        -0.1684
       8    H5      22.335775   17.514230   23.000230 H          1 MOL1         0.0833
       9    H6      21.177067   16.555484   22.109250 H          1 MOL1         0.0833
      10    C4      20.262676   17.801648   23.600664 C.3        1 MOL1        -0.1760
      11    H7      19.272153   17.708467   23.145955 H          1 MOL1         0.0833
      12    H8      20.309915   16.955942   24.298765 H          1 MOL1         0.0833
      13    C5      20.367284   19.093678   24.458757 C.3        1 MOL1         0.1219
      14    H9      21.105291   18.884990   25.246683 H          1 MOL1         0.0790
      15    C6      20.849219   20.391882   23.760952 C.3        1 MOL1        -0.1760
      16    H10     20.939586   21.162428   24.537557 H          1 MOL1         0.0833
      17    H11     21.880360   20.249020   23.426808 H          1 MOL1         0.0833
      18    C7      19.979362   20.994490   22.615201 C.3        1 MOL1        -0.1684
      19    H12     20.599945   21.676519   22.018913 H          1 MOL1         0.0833
      20    H13     19.215346   21.627638   23.086592 H          1 MOL1         0.0833
      21    C8      19.232199   20.021537   21.665407 C.3        1 MOL1        -0.1684
      22    H14     18.511007   19.436870   22.244826 H          1 MOL1         0.0833
      23    H15     18.597357   20.627071   21.004509 H          1 MOL1         0.0833
      24    O1      19.106791   19.337838   25.072472 O.3        1 MOL1        -0.5508
      25    H16     18.861884   18.518449   25.549199 H          1 MOL1         0.3780
@<TRIPOS>BOND
    1     1     2    1
    2     1     3    1
    3     1     4    1
    4     4     5    1
    5     4     6    1
    6     4     7    1
    7     7     8    1
    8     7     9    1
    9     7    10    1
   10    10    11    1
   11    10    12    1
   12    10    13    1
   13    13    14    1
   14    13    15    1
   15    15    16    1
   16    15    17    1
   17    15    18    1
   18    18    19    1
   19    18    20    1
   20     1    21    1
   21    18    21    1
   22    21    22    1
   23    21    23    1
   24    13    24    1
   25    24    25    1
@<TRIPOS>SUBSTRUCTURE
       1 MOL1            1 RESIDUE      1      MOL     
@<SCITEGIC>MOL_PROPERTY
VM2 Rank
SciTegic.value.IntegerValue
115

@<SCITEGIC>MOL_PROPERTY
Conf_Id
SciTegic.value.IntegerValue
1020

@<SCITEGIC>MOL_PROPERTY
Probability
SciTegic.value.DoubleValue
0.00

@<SCITEGIC>MOL_PROPERTY
Sum Probability
SciTegic.value.DoubleValue
100.00

@<SCITEGIC>MOL_PROPERTY
Delta G
SciTegic.value.DoubleValue
5.128

@<SCITEGIC>MOL_PROPERTY
G
SciTegic.value.DoubleValue
67.204

@<SCITEGIC>MOL_PROPERTY
E
SciTegic.value.DoubleValue
34.496

@<SCITEGIC>MOL_PROPERTY
-TS
SciTegic.value.DoubleValue
32.708

@<SCITEGIC>MOL_PROPERTY
U+W
SciTegic.value.DoubleValue
13.928

@<SCITEGIC>MOL_PROPERTY
U
SciTegic.value.DoubleValue
16.068

@<SCITEGIC>MOL_PROPERTY
W
SciTegic.value.DoubleValue
-2.140

@<SCITEGIC>MOL_PROPERTY
W(PB)
SciTegic.value.DoubleValue
-4.259

@<SCITEGIC>MOL_PROPERTY
W(SA)
SciTegic.value.DoubleValue
2.119

@<SCITEGIC>MOL_PROPERTY
Valence
SciTegic.value.DoubleValue
18.913

@<SCITEGIC>MOL_PROPERTY
Coulomb
SciTegic.value.DoubleValue
-6.661

@<SCITEGIC>MOL_PROPERTY
VdW
SciTegic.value.DoubleValue
3.815

@<SCITEGIC>MOL_PROPERTY
VdW6
SciTegic.value.DoubleValue
-13.863

@<SCITEGIC>MOL_PROPERTY
VdW12
SciTegic.value.DoubleValue
17.678

@<SCITEGIC>MOL_PROPERTY
Bond
SciTegic.value.DoubleValue
0.725

@<SCITEGIC>MOL_PROPERTY
Angle
SciTegic.value.DoubleValue
9.705

@<SCITEGIC>MOL_PROPERTY
Pdih
SciTegic.value.DoubleValue
8.484

@<SCITEGIC>MOL_PROPERTY
Idih
SciTegic.value.DoubleValue
0.000

@<SCITEGIC>MOL_PROPERTY
Tether
SciTegic.value.DoubleValue
0.000

@<TRIPOS>MOLECULE
guest-s17_vm2.mol2 : vm2 ligand conformer 116
          25          25           1
SMALL
USER_CHARGES
 
@<TRIPOS>ATOM
       1    C1      20.111092   19.112927   20.750820 C.3        1 MOL1        -0.1684
       2    H1      19.079074   19.229402   20.393562 H          1 MOL1         0.0833
       3    H2      20.708450   18.896015   19.854832 H          1 MOL1         0.0833
       4    C2      20.184541   17.861334   21.673117 C.3        1 MOL1        -0.1684
       5    H3      20.203361   16.979270   21.018829 H          1 MOL1         0.0833
       6    H4      19.255424   17.738743   22.238265 H          1 MOL1         0.0833
       7    C3      21.389666   17.748580   22.643664 C.3        1 MOL1        -0.1684
       8    H5      22.321336   17.730991   22.062692 H          1 MOL1         0.0833
       9    H6      21.321720   16.761605   23.121230 H          1 MOL1         0.0833
      10    C4      21.525729   18.803751   23.784118 C.3        1 MOL1        -0.1760
      11    H7      22.137124   18.348721   24.574160 H          1 MOL1         0.0833
      12    H8      22.131725   19.651607   23.453636 H          1 MOL1         0.0833
      13    C5      20.237543   19.344381   24.457040 C.3        1 MOL1         0.1219
      14    H9      20.576813   20.031500   25.245581 H          1 MOL1         0.0790
      15    C6      19.237145   20.144792   23.576612 C.3        1 MOL1        -0.1760
      16    H10     18.499599   19.482114   23.114595 H          1 MOL1         0.0833
      17    H11     18.640807   20.762352   24.260567 H          1 MOL1         0.0833
      18    C7      19.821878   21.095519   22.496468 C.3        1 MOL1        -0.1684
      19    H12     20.454049   21.850166   22.983586 H          1 MOL1         0.0833
      20    H13     18.977020   21.653071   22.069702 H          1 MOL1         0.0833
      21    C8      20.612225   20.469788   21.310672 C.3        1 MOL1        -0.1684
      22    H14     21.677601   20.392346   21.547902 H          1 MOL1         0.0833
      23    H15     20.585779   21.196667   20.487441 H          1 MOL1         0.0833
      24    O1      19.544180   18.261929   25.067489 O.3        1 MOL1        -0.5508
      25    H16     18.771096   18.646708   25.528937 H          1 MOL1         0.3780
@<TRIPOS>BOND
    1     1     2    1
    2     1     3    1
    3     1     4    1
    4     4     5    1
    5     4     6    1
    6     4     7    1
    7     7     8    1
    8     7     9    1
    9     7    10    1
   10    10    11    1
   11    10    12    1
   12    10    13    1
   13    13    14    1
   14    13    15    1
   15    15    16    1
   16    15    17    1
   17    15    18    1
   18    18    19    1
   19    18    20    1
   20     1    21    1
   21    18    21    1
   22    21    22    1
   23    21    23    1
   24    13    24    1
   25    24    25    1
@<TRIPOS>SUBSTRUCTURE
       1 MOL1            1 RESIDUE      1      MOL     
@<SCITEGIC>MOL_PROPERTY
VM2 Rank
SciTegic.value.IntegerValue
116

@<SCITEGIC>MOL_PROPERTY
Conf_Id
SciTegic.value.IntegerValue
184

@<SCITEGIC>MOL_PROPERTY
Probability
SciTegic.value.DoubleValue
0.00

@<SCITEGIC>MOL_PROPERTY
Sum Probability
SciTegic.value.DoubleValue
100.00

@<SCITEGIC>MOL_PROPERTY
Delta G
SciTegic.value.DoubleValue
5.157

@<SCITEGIC>MOL_PROPERTY
G
SciTegic.value.DoubleValue
67.233

@<SCITEGIC>MOL_PROPERTY
E
SciTegic.value.DoubleValue
34.525

@<SCITEGIC>MOL_PROPERTY
-TS
SciTegic.value.DoubleValue
32.708

@<SCITEGIC>MOL_PROPERTY
U+W
SciTegic.value.DoubleValue
13.957

@<SCITEGIC>MOL_PROPERTY
U
SciTegic.value.DoubleValue
16.068

@<SCITEGIC>MOL_PROPERTY
W
SciTegic.value.DoubleValue
-2.110

@<SCITEGIC>MOL_PROPERTY
W(PB)
SciTegic.value.DoubleValue
-4.237

@<SCITEGIC>MOL_PROPERTY
W(SA)
SciTegic.value.DoubleValue
2.127

@<SCITEGIC>MOL_PROPERTY
Valence
SciTegic.value.DoubleValue
18.913

@<SCITEGIC>MOL_PROPERTY
Coulomb
SciTegic.value.DoubleValue
-6.661

@<SCITEGIC>MOL_PROPERTY
VdW
SciTegic.value.DoubleValue
3.815

@<SCITEGIC>MOL_PROPERTY
VdW6
SciTegic.value.DoubleValue
-13.862

@<SCITEGIC>MOL_PROPERTY
VdW12
SciTegic.value.DoubleValue
17.677

@<SCITEGIC>MOL_PROPERTY
Bond
SciTegic.value.DoubleValue
0.725

@<SCITEGIC>MOL_PROPERTY
Angle
SciTegic.value.DoubleValue
9.706

@<SCITEGIC>MOL_PROPERTY
Pdih
SciTegic.value.DoubleValue
8.483

@<SCITEGIC>MOL_PROPERTY
Idih
SciTegic.value.DoubleValue
0.000

@<SCITEGIC>MOL_PROPERTY
Tether
SciTegic.value.DoubleValue
0.000

@<TRIPOS>MOLECULE
guest-s17_vm2.mol2 : vm2 ligand conformer 117
          25          25           1
SMALL
USER_CHARGES
 
@<TRIPOS>ATOM
       1    C1      20.151727   19.141070   20.753026 C.3        1 MOL1        -0.1684
       2    H1      19.448674   18.872257   19.953058 H          1 MOL1         0.0833
       3    H2      21.062356   19.483789   20.243302 H          1 MOL1         0.0833
       4    C2      20.465779   17.854064   21.557306 C.3        1 MOL1        -0.1684
       5    H3      20.759348   17.085848   20.829097 H          1 MOL1         0.0833
       6    H4      19.559557   17.461853   22.033154 H          1 MOL1         0.0833
       7    C3      21.623874   17.996610   22.577093 C.3        1 MOL1        -0.1684
       8    H5      22.299159   18.806099   22.279519 H          1 MOL1         0.0833
       9    H6      22.243558   17.092377   22.505577 H          1 MOL1         0.0833
      10    C4      21.219786   18.143429   24.070945 C.3        1 MOL1        -0.1760
      11    H7      20.930828   17.150967   24.440285 H          1 MOL1         0.0833
      12    H8      22.124329   18.404508   24.635280 H          1 MOL1         0.0833
      13    C5      20.101418   19.138398   24.483595 C.3        1 MOL1         0.1219
      14    H9      20.131876   19.154486   25.582643 H          1 MOL1         0.0790
      15    C6      20.262759   20.623247   24.061253 C.3        1 MOL1        -0.1760
      16    H10     19.365599   21.155721   24.403201 H          1 MOL1         0.0833
      17    H11     21.090907   21.050783   24.640717 H          1 MOL1         0.0833
      18    C7      20.491876   20.985440   22.567308 C.3        1 MOL1        -0.1684
      19    H12     21.536099   20.816095   22.283798 H          1 MOL1         0.0833
      20    H13     20.363649   22.073125   22.483117 H          1 MOL1         0.0833
      21    C8      19.533522   20.318933   21.548096 C.3        1 MOL1        -0.1684
      22    H14     18.594963   20.014663   22.027086 H          1 MOL1         0.0833
      23    H15     19.244339   21.084327   20.815278 H          1 MOL1         0.0833
      24    O1      18.813260   18.641809   24.141377 O.3        1 MOL1        -0.5508
      25    H16     18.807311   17.693403   24.378817 H          1 MOL1         0.3780
@<TRIPOS>BOND
    1     1     2    1
    2     1     3    1
    3     1     4    1
    4     4     5    1
    5     4     6    1
    6     4     7    1
    7     7     8    1
    8     7     9    1
    9     7    10    1
   10    10    11    1
   11    10    12    1
   12    10    13    1
   13    13    14    1
   14    13    15    1
   15    15    16    1
   16    15    17    1
   17    15    18    1
   18    18    19    1
   19    18    20    1
   20     1    21    1
   21    18    21    1
   22    21    22    1
   23    21    23    1
   24    13    24    1
   25    24    25    1
@<TRIPOS>SUBSTRUCTURE
       1 MOL1            1 RESIDUE      1      MOL     
@<SCITEGIC>MOL_PROPERTY
VM2 Rank
SciTegic.value.IntegerValue
117

@<SCITEGIC>MOL_PROPERTY
Conf_Id
SciTegic.value.IntegerValue
1555

@<SCITEGIC>MOL_PROPERTY
Probability
SciTegic.value.DoubleValue
0.00

@<SCITEGIC>MOL_PROPERTY
Sum Probability
SciTegic.value.DoubleValue
100.00

@<SCITEGIC>MOL_PROPERTY
Delta G
SciTegic.value.DoubleValue
5.540

@<SCITEGIC>MOL_PROPERTY
G
SciTegic.value.DoubleValue
67.615

@<SCITEGIC>MOL_PROPERTY
E
SciTegic.value.DoubleValue
34.890

@<SCITEGIC>MOL_PROPERTY
-TS
SciTegic.value.DoubleValue
32.725

@<SCITEGIC>MOL_PROPERTY
U+W
SciTegic.value.DoubleValue
14.323

@<SCITEGIC>MOL_PROPERTY
U
SciTegic.value.DoubleValue
16.213

@<SCITEGIC>MOL_PROPERTY
W
SciTegic.value.DoubleValue
-1.891

@<SCITEGIC>MOL_PROPERTY
W(PB)
SciTegic.value.DoubleValue
-4.002

@<SCITEGIC>MOL_PROPERTY
W(SA)
SciTegic.value.DoubleValue
2.111

@<SCITEGIC>MOL_PROPERTY
Valence
SciTegic.value.DoubleValue
19.752

@<SCITEGIC>MOL_PROPERTY
Coulomb
SciTegic.value.DoubleValue
-6.007

@<SCITEGIC>MOL_PROPERTY
VdW
SciTegic.value.DoubleValue
2.469

@<SCITEGIC>MOL_PROPERTY
VdW6
SciTegic.value.DoubleValue
-13.673

@<SCITEGIC>MOL_PROPERTY
VdW12
SciTegic.value.DoubleValue
16.142

@<SCITEGIC>MOL_PROPERTY
Bond
SciTegic.value.DoubleValue
0.503

@<SCITEGIC>MOL_PROPERTY
Angle
SciTegic.value.DoubleValue
8.543

@<SCITEGIC>MOL_PROPERTY
Pdih
SciTegic.value.DoubleValue
10.706

@<SCITEGIC>MOL_PROPERTY
Idih
SciTegic.value.DoubleValue
0.000

@<SCITEGIC>MOL_PROPERTY
Tether
SciTegic.value.DoubleValue
0.000

@<TRIPOS>MOLECULE
guest-s17_vm2.mol2 : vm2 ligand conformer 118
          25          25           1
SMALL
USER_CHARGES
 
@<TRIPOS>ATOM
       1    C1      20.151326   19.142345   20.753006 C.3        1 MOL1        -0.1684
       2    H1      19.449354   18.870793   19.953015 H          1 MOL1         0.0833
       3    H2      21.060962   19.487750   20.243318 H          1 MOL1         0.0833
       4    C2      20.469703   17.856671   21.557591 C.3        1 MOL1        -0.1684
       5    H3      19.564822   17.463798   22.036909 H          1 MOL1         0.0833
       6    H4      20.763926   17.087553   20.830701 H          1 MOL1         0.0833
       7    C3      21.626159   18.002075   22.578833 C.3        1 MOL1        -0.1684
       8    H5      22.294875   18.820440   22.291510 H          1 MOL1         0.0833
       9    H6      22.253120   17.103377   22.502328 H          1 MOL1         0.0833
      10    C4      21.210455   18.130667   24.070885 C.3        1 MOL1        -0.1760
      11    H7      20.892826   17.138972   24.418742 H          1 MOL1         0.0833
      12    H8      22.111966   18.365277   24.651083 H          1 MOL1         0.0833
      13    C5      20.102271   19.136043   24.483606 C.3        1 MOL1         0.1219
      14    H9      20.132899   19.151666   25.582658 H          1 MOL1         0.0790
      15    C6      20.278132   20.619889   24.061393 C.3        1 MOL1        -0.1760
      16    H10     19.401791   21.172105   24.424674 H          1 MOL1         0.0833
      17    H11     21.126122   21.029572   24.625226 H          1 MOL1         0.0833
      18    C7      20.486556   20.987992   22.565567 C.3        1 MOL1        -0.1684
      19    H12     21.529837   20.829575   22.271799 H          1 MOL1         0.0833
      20    H13     20.349207   22.075016   22.486348 H          1 MOL1         0.0833
      21    C8      19.528925   20.318284   21.547776 C.3        1 MOL1        -0.1684
      22    H14     18.589810   20.012548   22.023267 H          1 MOL1         0.0833
      23    H15     19.239852   21.082573   20.813658 H          1 MOL1         0.0833
      24    O1      18.810472   18.649033   24.141343 O.3        1 MOL1        -0.5508
      25    H16     18.175285   19.355403   24.372578 H          1 MOL1         0.3780
@<TRIPOS>BOND
    1     1     2    1
    2     1     3    1
    3     1     4    1
    4     4     5    1
    5     4     6    1
    6     4     7    1
    7     7     8    1
    8     7     9    1
    9     7    10    1
   10    10    11    1
   11    10    12    1
   12    10    13    1
   13    13    14    1
   14    13    15    1
   15    15    16    1
   16    15    17    1
   17    15    18    1
   18    18    19    1
   19    18    20    1
   20     1    21    1
   21    18    21    1
   22    21    22    1
   23    21    23    1
   24    13    24    1
   25    24    25    1
@<TRIPOS>SUBSTRUCTURE
       1 MOL1            1 RESIDUE      1      MOL     
@<SCITEGIC>MOL_PROPERTY
VM2 Rank
SciTegic.value.IntegerValue
118

@<SCITEGIC>MOL_PROPERTY
Conf_Id
SciTegic.value.IntegerValue
547

@<SCITEGIC>MOL_PROPERTY
Probability
SciTegic.value.DoubleValue
0.00

@<SCITEGIC>MOL_PROPERTY
Sum Probability
SciTegic.value.DoubleValue
100.00

@<SCITEGIC>MOL_PROPERTY
Delta G
SciTegic.value.DoubleValue
5.551

@<SCITEGIC>MOL_PROPERTY
G
SciTegic.value.DoubleValue
67.626

@<SCITEGIC>MOL_PROPERTY
E
SciTegic.value.DoubleValue
34.901

@<SCITEGIC>MOL_PROPERTY
-TS
SciTegic.value.DoubleValue
32.725

@<SCITEGIC>MOL_PROPERTY
U+W
SciTegic.value.DoubleValue
14.333

@<SCITEGIC>MOL_PROPERTY
U
SciTegic.value.DoubleValue
16.214

@<SCITEGIC>MOL_PROPERTY
W
SciTegic.value.DoubleValue
-1.881

@<SCITEGIC>MOL_PROPERTY
W(PB)
SciTegic.value.DoubleValue
-3.985

@<SCITEGIC>MOL_PROPERTY
W(SA)
SciTegic.value.DoubleValue
2.105

@<SCITEGIC>MOL_PROPERTY
Valence
SciTegic.value.DoubleValue
19.752

@<SCITEGIC>MOL_PROPERTY
Coulomb
SciTegic.value.DoubleValue
-6.007

@<SCITEGIC>MOL_PROPERTY
VdW
SciTegic.value.DoubleValue
2.469

@<SCITEGIC>MOL_PROPERTY
VdW6
SciTegic.value.DoubleValue
-13.673

@<SCITEGIC>MOL_PROPERTY
VdW12
SciTegic.value.DoubleValue
16.142

@<SCITEGIC>MOL_PROPERTY
Bond
SciTegic.value.DoubleValue
0.503

@<SCITEGIC>MOL_PROPERTY
Angle
SciTegic.value.DoubleValue
8.543

@<SCITEGIC>MOL_PROPERTY
Pdih
SciTegic.value.DoubleValue
10.706

@<SCITEGIC>MOL_PROPERTY
Idih
SciTegic.value.DoubleValue
0.000

@<SCITEGIC>MOL_PROPERTY
Tether
SciTegic.value.DoubleValue
0.000

@<TRIPOS>MOLECULE
guest-s17_vm2.mol2 : vm2 ligand conformer 119
          25          25           1
SMALL
USER_CHARGES
 
@<TRIPOS>ATOM
       1    C1      19.493725   18.821128   21.291041 C.3        1 MOL1        -0.1684
       2    H1      18.858660   18.261399   21.984148 H          1 MOL1         0.0833
       3    H2      19.002065   18.677620   20.319045 H          1 MOL1         0.0833
       4    C2      20.884749   18.141285   21.217370 C.3        1 MOL1        -0.1684
       5    H3      20.723147   17.121567   20.841893 H          1 MOL1         0.0833
       6    H4      21.497686   18.640246   20.454637 H          1 MOL1         0.0833
       7    C3      21.701151   18.027913   22.537228 C.3        1 MOL1        -0.1684
       8    H5      22.409587   18.857613   22.635164 H          1 MOL1         0.0833
       9    H6      22.346587   17.144461   22.438501 H          1 MOL1         0.0833
      10    C4      20.890222   17.874198   23.852445 C.3        1 MOL1        -0.1760
      11    H7      20.159973   17.062097   23.739093 H          1 MOL1         0.0833
      12    H8      21.594502   17.513696   24.613349 H          1 MOL1         0.0833
      13    C5      20.193333   19.130019   24.458792 C.3        1 MOL1         0.1219
      14    H9      20.407998   19.091695   25.536523 H          1 MOL1         0.0790
      15    C6      20.650572   20.537842   23.990083 C.3        1 MOL1        -0.1760
      16    H10     20.040265   21.266806   24.539802 H          1 MOL1         0.0833
      17    H11     21.674713   20.701215   24.349495 H          1 MOL1         0.0833
      18    C7      20.600703   20.927508   22.479787 C.3        1 MOL1        -0.1684
      19    H12     21.564972   20.723165   22.001776 H          1 MOL1         0.0833
      20    H13     20.521765   22.022368   22.436497 H          1 MOL1         0.0833
      21    C8      19.465528   20.346725   21.597168 C.3        1 MOL1        -0.1684
      22    H14     18.488032   20.626039   22.012547 H          1 MOL1         0.0833
      23    H15     19.523429   20.868197   20.631784 H          1 MOL1         0.0833
      24    O1      18.784017   19.036381   24.336086 O.3        1 MOL1        -0.5508
      25    H16     18.607370   19.286899   23.406972 H          1 MOL1         0.3780
@<TRIPOS>BOND
    1     1     2    1
    2     1     3    1
    3     1     4    1
    4     4     5    1
    5     4     6    1
    6     4     7    1
    7     7     8    1
    8     7     9    1
    9     7    10    1
   10    10    11    1
   11    10    12    1
   12    10    13    1
   13    13    14    1
   14    13    15    1
   15    15    16    1
   16    15    17    1
   17    15    18    1
   18    18    19    1
   19    18    20    1
   20     1    21    1
   21    18    21    1
   22    21    22    1
   23    21    23    1
   24    13    24    1
   25    24    25    1
@<TRIPOS>SUBSTRUCTURE
       1 MOL1            1 RESIDUE      1      MOL     
@<SCITEGIC>MOL_PROPERTY
VM2 Rank
SciTegic.value.IntegerValue
119

@<SCITEGIC>MOL_PROPERTY
Conf_Id
SciTegic.value.IntegerValue
1970

@<SCITEGIC>MOL_PROPERTY
Probability
SciTegic.value.DoubleValue
0.00

@<SCITEGIC>MOL_PROPERTY
Sum Probability
SciTegic.value.DoubleValue
100.00

@<SCITEGIC>MOL_PROPERTY
Delta G
SciTegic.value.DoubleValue
7.422

@<SCITEGIC>MOL_PROPERTY
G
SciTegic.value.DoubleValue
69.498

@<SCITEGIC>MOL_PROPERTY
E
SciTegic.value.DoubleValue
36.284

@<SCITEGIC>MOL_PROPERTY
-TS
SciTegic.value.DoubleValue
33.214

@<SCITEGIC>MOL_PROPERTY
U+W
SciTegic.value.DoubleValue
15.716

@<SCITEGIC>MOL_PROPERTY
U
SciTegic.value.DoubleValue
16.593

@<SCITEGIC>MOL_PROPERTY
W
SciTegic.value.DoubleValue
-0.877

@<SCITEGIC>MOL_PROPERTY
W(PB)
SciTegic.value.DoubleValue
-2.981

@<SCITEGIC>MOL_PROPERTY
W(SA)
SciTegic.value.DoubleValue
2.104

@<SCITEGIC>MOL_PROPERTY
Valence
SciTegic.value.DoubleValue
22.340

@<SCITEGIC>MOL_PROPERTY
Coulomb
SciTegic.value.DoubleValue
-9.762

@<SCITEGIC>MOL_PROPERTY
VdW
SciTegic.value.DoubleValue
4.015

@<SCITEGIC>MOL_PROPERTY
VdW6
SciTegic.value.DoubleValue
-15.368

@<SCITEGIC>MOL_PROPERTY
VdW12
SciTegic.value.DoubleValue
19.383

@<SCITEGIC>MOL_PROPERTY
Bond
SciTegic.value.DoubleValue
0.782

@<SCITEGIC>MOL_PROPERTY
Angle
SciTegic.value.DoubleValue
10.778

@<SCITEGIC>MOL_PROPERTY
Pdih
SciTegic.value.DoubleValue
10.779

@<SCITEGIC>MOL_PROPERTY
Idih
SciTegic.value.DoubleValue
0.000

@<SCITEGIC>MOL_PROPERTY
Tether
SciTegic.value.DoubleValue
0.000

@<TRIPOS>MOLECULE
guest-s17_vm2.mol2 : vm2 ligand conformer 120
          25          25           1
SMALL
USER_CHARGES
 
@<TRIPOS>ATOM
       1    C1      19.466171   18.962359   21.277277 C.3        1 MOL1        -0.1684
       2    H1      18.608841   18.958074   21.956958 H          1 MOL1         0.0833
       3    H2      19.018553   18.745295   20.297674 H          1 MOL1         0.0833
       4    C2      20.452819   17.801981   21.596657 C.3        1 MOL1        -0.1684
       5    H3      19.900660   16.943401   22.001642 H          1 MOL1         0.0833
       6    H4      20.857451   17.452345   20.636824 H          1 MOL1         0.0833
       7    C3      21.673283   18.119297   22.499281 C.3        1 MOL1        -0.1684
       8    H5      22.266315   18.913131   22.032158 H          1 MOL1         0.0833
       9    H6      22.341589   17.248090   22.464779 H          1 MOL1         0.0833
      10    C4      21.428141   18.440816   24.006548 C.3        1 MOL1        -0.1760
      11    H7      21.446893   17.489396   24.554728 H          1 MOL1         0.0833
      12    H8      22.296786   18.997695   24.380817 H          1 MOL1         0.0833
      13    C5      20.144438   19.189344   24.456576 C.3        1 MOL1         0.1219
      14    H9      20.262547   19.358341   25.536643 H          1 MOL1         0.0790
      15    C6      19.841648   20.592401   23.848181 C.3        1 MOL1        -0.1760
      16    H10     18.758340   20.715303   23.717966 H          1 MOL1         0.0833
      17    H11     20.117048   21.327993   24.614997 H          1 MOL1         0.0833
      18    C7      20.570845   21.018336   22.545151 C.3        1 MOL1        -0.1684
      19    H12     21.649766   20.867803   22.659803 H          1 MOL1         0.0833
      20    H13     20.468730   22.107721   22.446991 H          1 MOL1         0.0833
      21    C8      20.056356   20.394299   21.215767 C.3        1 MOL1        -0.1684
      22    H14     19.264623   21.050474   20.829092 H          1 MOL1         0.0833
      23    H15     20.857902   20.429486   20.465632 H          1 MOL1         0.0833
      24    O1      19.030300   18.324168   24.314562 O.3        1 MOL1        -0.5508
      25    H16     19.079096   18.021422   23.385487 H          1 MOL1         0.3780
@<TRIPOS>BOND
    1     1     2    1
    2     1     3    1
    3     1     4    1
    4     4     5    1
    5     4     6    1
    6     4     7    1
    7     7     8    1
    8     7     9    1
    9     7    10    1
   10    10    11    1
   11    10    12    1
   12    10    13    1
   13    13    14    1
   14    13    15    1
   15    15    16    1
   16    15    17    1
   17    15    18    1
   18    18    19    1
   19    18    20    1
   20     1    21    1
   21    18    21    1
   22    21    22    1
   23    21    23    1
   24    13    24    1
   25    24    25    1
@<TRIPOS>SUBSTRUCTURE
       1 MOL1            1 RESIDUE      1      MOL     
@<SCITEGIC>MOL_PROPERTY
VM2 Rank
SciTegic.value.IntegerValue
120

@<SCITEGIC>MOL_PROPERTY
Conf_Id
SciTegic.value.IntegerValue
830

@<SCITEGIC>MOL_PROPERTY
Probability
SciTegic.value.DoubleValue
0.00

@<SCITEGIC>MOL_PROPERTY
Sum Probability
SciTegic.value.DoubleValue
100.00

@<SCITEGIC>MOL_PROPERTY
Delta G
SciTegic.value.DoubleValue
7.438

@<SCITEGIC>MOL_PROPERTY
G
SciTegic.value.DoubleValue
69.513

@<SCITEGIC>MOL_PROPERTY
E
SciTegic.value.DoubleValue
36.299

@<SCITEGIC>MOL_PROPERTY
-TS
SciTegic.value.DoubleValue
33.214

@<SCITEGIC>MOL_PROPERTY
U+W
SciTegic.value.DoubleValue
15.732

@<SCITEGIC>MOL_PROPERTY
U
SciTegic.value.DoubleValue
16.593

@<SCITEGIC>MOL_PROPERTY
W
SciTegic.value.DoubleValue
-0.862

@<SCITEGIC>MOL_PROPERTY
W(PB)
SciTegic.value.DoubleValue
-2.960

@<SCITEGIC>MOL_PROPERTY
W(SA)
SciTegic.value.DoubleValue
2.098

@<SCITEGIC>MOL_PROPERTY
Valence
SciTegic.value.DoubleValue
22.340

@<SCITEGIC>MOL_PROPERTY
Coulomb
SciTegic.value.DoubleValue
-9.762

@<SCITEGIC>MOL_PROPERTY
VdW
SciTegic.value.DoubleValue
4.015

@<SCITEGIC>MOL_PROPERTY
VdW6
SciTegic.value.DoubleValue
-15.368

@<SCITEGIC>MOL_PROPERTY
VdW12
SciTegic.value.DoubleValue
19.383

@<SCITEGIC>MOL_PROPERTY
Bond
SciTegic.value.DoubleValue
0.782

@<SCITEGIC>MOL_PROPERTY
Angle
SciTegic.value.DoubleValue
10.778

@<SCITEGIC>MOL_PROPERTY
Pdih
SciTegic.value.DoubleValue
10.779

@<SCITEGIC>MOL_PROPERTY
Idih
SciTegic.value.DoubleValue
0.000

@<SCITEGIC>MOL_PROPERTY
Tether
SciTegic.value.DoubleValue
0.000

@<TRIPOS>MOLECULE
guest-s17_vm2.mol2 : vm2 ligand conformer 121
          25          25           1
SMALL
USER_CHARGES
 
@<TRIPOS>ATOM
       1    C1      19.485766   18.820121   21.304967 C.3        1 MOL1        -0.1684
       2    H1      18.867392   18.288353   22.034873 H          1 MOL1         0.0833
       3    H2      18.966492   18.655809   20.351239 H          1 MOL1         0.0833
       4    C2      20.874184   18.135456   21.216087 C.3        1 MOL1        -0.1684
       5    H3      20.703732   17.113401   20.851369 H          1 MOL1         0.0833
       6    H4      21.478731   18.626898   20.442028 H          1 MOL1         0.0833
       7    C3      21.704154   18.029085   22.528347 C.3        1 MOL1        -0.1684
       8    H5      22.410602   18.861170   22.618134 H          1 MOL1         0.0833
       9    H6      22.350343   17.146475   22.427879 H          1 MOL1         0.0833
      10    C4      20.901399   17.879168   23.849276 C.3        1 MOL1        -0.1760
      11    H7      20.169788   17.067837   23.740079 H          1 MOL1         0.0833
      12    H8      21.608734   17.520892   24.608220 H          1 MOL1         0.0833
      13    C5      20.202572   19.136253   24.452852 C.3        1 MOL1         0.1219
      14    H9      20.453020   19.114093   25.523385 H          1 MOL1         0.0790
      15    C6      20.644528   20.547908   23.971775 C.3        1 MOL1        -0.1760
      16    H10     20.031677   21.278894   24.514933 H          1 MOL1         0.0833
      17    H11     21.667167   20.720776   24.331099 H          1 MOL1         0.0833
      18    C7      20.601731   20.931771   22.460562 C.3        1 MOL1        -0.1684
      19    H12     21.564564   20.720237   21.983398 H          1 MOL1         0.0833
      20    H13     20.525788   22.026444   22.410975 H          1 MOL1         0.0833
      21    C8      19.463587   20.348353   21.587050 C.3        1 MOL1        -0.1684
      22    H14     18.491741   20.620651   22.019820 H          1 MOL1         0.0833
      23    H15     19.507841   20.861888   20.617085 H          1 MOL1         0.0833
      24    O1      18.786080   19.014886   24.389083 O.3        1 MOL1        -0.5508
      25    H16     18.420753   19.884324   24.647842 H          1 MOL1         0.3780
@<TRIPOS>BOND
    1     1     2    1
    2     1     3    1
    3     1     4    1
    4     4     5    1
    5     4     6    1
    6     4     7    1
    7     7     8    1
    8     7     9    1
    9     7    10    1
   10    10    11    1
   11    10    12    1
   12    10    13    1
   13    13    14    1
   14    13    15    1
   15    15    16    1
   16    15    17    1
   17    15    18    1
   18    18    19    1
   19    18    20    1
   20     1    21    1
   21    18    21    1
   22    21    22    1
   23    21    23    1
   24    13    24    1
   25    24    25    1
@<TRIPOS>SUBSTRUCTURE
       1 MOL1            1 RESIDUE      1      MOL     
@<SCITEGIC>MOL_PROPERTY
VM2 Rank
SciTegic.value.IntegerValue
121

@<SCITEGIC>MOL_PROPERTY
Conf_Id
SciTegic.value.IntegerValue
1486

@<SCITEGIC>MOL_PROPERTY
Probability
SciTegic.value.DoubleValue
0.00

@<SCITEGIC>MOL_PROPERTY
Sum Probability
SciTegic.value.DoubleValue
100.00

@<SCITEGIC>MOL_PROPERTY
Delta G
SciTegic.value.DoubleValue
8.876

@<SCITEGIC>MOL_PROPERTY
G
SciTegic.value.DoubleValue
70.951

@<SCITEGIC>MOL_PROPERTY
E
SciTegic.value.DoubleValue
38.323

@<SCITEGIC>MOL_PROPERTY
-TS
SciTegic.value.DoubleValue
32.628

@<SCITEGIC>MOL_PROPERTY
U+W
SciTegic.value.DoubleValue
17.756

@<SCITEGIC>MOL_PROPERTY
U
SciTegic.value.DoubleValue
19.520

@<SCITEGIC>MOL_PROPERTY
W
SciTegic.value.DoubleValue
-1.765

@<SCITEGIC>MOL_PROPERTY
W(PB)
SciTegic.value.DoubleValue
-3.862

@<SCITEGIC>MOL_PROPERTY
W(SA)
SciTegic.value.DoubleValue
2.098

@<SCITEGIC>MOL_PROPERTY
Valence
SciTegic.value.DoubleValue
21.920

@<SCITEGIC>MOL_PROPERTY
Coulomb
SciTegic.value.DoubleValue
-6.404

@<SCITEGIC>MOL_PROPERTY
VdW
SciTegic.value.DoubleValue
4.004

@<SCITEGIC>MOL_PROPERTY
VdW6
SciTegic.value.DoubleValue
-14.821

@<SCITEGIC>MOL_PROPERTY
VdW12
SciTegic.value.DoubleValue
18.826

@<SCITEGIC>MOL_PROPERTY
Bond
SciTegic.value.DoubleValue
0.770

@<SCITEGIC>MOL_PROPERTY
Angle
SciTegic.value.DoubleValue
10.565

@<SCITEGIC>MOL_PROPERTY
Pdih
SciTegic.value.DoubleValue
10.585

@<SCITEGIC>MOL_PROPERTY
Idih
SciTegic.value.DoubleValue
0.000

@<SCITEGIC>MOL_PROPERTY
Tether
SciTegic.value.DoubleValue
0.000

@<TRIPOS>MOLECULE
guest-s17_vm2.mol2 : vm2 ligand conformer 122
          25          25           1
SMALL
USER_CHARGES
 
@<TRIPOS>ATOM
       1    C1      19.458812   18.958337   21.291278 C.3        1 MOL1        -0.1684
       2    H1      18.632105   18.944636   22.008419 H          1 MOL1         0.0833
       3    H2      18.976089   18.738788   20.329500 H          1 MOL1         0.0833
       4    C2      20.451444   17.799410   21.586447 C.3        1 MOL1        -0.1684
       5    H3      19.898158   16.950107   22.008919 H          1 MOL1         0.0833
       6    H4      20.840248   17.446464   20.621683 H          1 MOL1         0.0833
       7    C3      21.676413   18.115965   22.479763 C.3        1 MOL1        -0.1684
       8    H5      22.263963   18.913886   22.013302 H          1 MOL1         0.0833
       9    H6      22.346402   17.246498   22.438816 H          1 MOL1         0.0833
      10    C4      21.430344   18.428537   23.987972 C.3        1 MOL1        -0.1760
      11    H7      21.448105   17.473886   24.529518 H          1 MOL1         0.0833
      12    H8      22.304621   18.976701   24.362062 H          1 MOL1         0.0833
      13    C5      20.155943   19.190891   24.450848 C.3        1 MOL1         0.1219
      14    H9      20.312028   19.371440   25.524299 H          1 MOL1         0.0790
      15    C6      19.854497   20.596390   23.845351 C.3        1 MOL1        -0.1760
      16    H10     18.770661   20.718534   23.719580 H          1 MOL1         0.0833
      17    H11     20.134390   21.332143   24.610211 H          1 MOL1         0.0833
      18    C7      20.575076   21.019304   22.536285 C.3        1 MOL1        -0.1684
      19    H12     21.654151   20.865003   22.642509 H          1 MOL1         0.0833
      20    H13     20.474775   22.108626   22.436436 H          1 MOL1         0.0833
      21    C8      20.044947   20.391831   21.214378 C.3        1 MOL1        -0.1684
      22    H14     19.245181   21.044356   20.838541 H          1 MOL1         0.0833
      23    H15     20.835238   20.426631   20.452544 H          1 MOL1         0.0833
      24    O1      19.016524   18.342333   24.367678 O.3        1 MOL1        -0.5508
      25    H16     19.315731   17.448869   24.629481 H          1 MOL1         0.3780
@<TRIPOS>BOND
    1     1     2    1
    2     1     3    1
    3     1     4    1
    4     4     5    1
    5     4     6    1
    6     4     7    1
    7     7     8    1
    8     7     9    1
    9     7    10    1
   10    10    11    1
   11    10    12    1
   12    10    13    1
   13    13    14    1
   14    13    15    1
   15    15    16    1
   16    15    17    1
   17    15    18    1
   18    18    19    1
   19    18    20    1
   20     1    21    1
   21    18    21    1
   22    21    22    1
   23    21    23    1
   24    13    24    1
   25    24    25    1
@<TRIPOS>SUBSTRUCTURE
       1 MOL1            1 RESIDUE      1      MOL     
@<SCITEGIC>MOL_PROPERTY
VM2 Rank
SciTegic.value.IntegerValue
122

@<SCITEGIC>MOL_PROPERTY
Conf_Id
SciTegic.value.IntegerValue
974

@<SCITEGIC>MOL_PROPERTY
Probability
SciTegic.value.DoubleValue
0.00

@<SCITEGIC>MOL_PROPERTY
Sum Probability
SciTegic.value.DoubleValue
100.00

@<SCITEGIC>MOL_PROPERTY
Delta G
SciTegic.value.DoubleValue
8.929

@<SCITEGIC>MOL_PROPERTY
G
SciTegic.value.DoubleValue
71.004

@<SCITEGIC>MOL_PROPERTY
E
SciTegic.value.DoubleValue
38.376

@<SCITEGIC>MOL_PROPERTY
-TS
SciTegic.value.DoubleValue
32.627

@<SCITEGIC>MOL_PROPERTY
U+W
SciTegic.value.DoubleValue
17.809

@<SCITEGIC>MOL_PROPERTY
U
SciTegic.value.DoubleValue
19.521

@<SCITEGIC>MOL_PROPERTY
W
SciTegic.value.DoubleValue
-1.712

@<SCITEGIC>MOL_PROPERTY
W(PB)
SciTegic.value.DoubleValue
-3.813

@<SCITEGIC>MOL_PROPERTY
W(SA)
SciTegic.value.DoubleValue
2.102

@<SCITEGIC>MOL_PROPERTY
Valence
SciTegic.value.DoubleValue
21.920

@<SCITEGIC>MOL_PROPERTY
Coulomb
SciTegic.value.DoubleValue
-6.404

@<SCITEGIC>MOL_PROPERTY
VdW
SciTegic.value.DoubleValue
4.004

@<SCITEGIC>MOL_PROPERTY
VdW6
SciTegic.value.DoubleValue
-14.821

@<SCITEGIC>MOL_PROPERTY
VdW12
SciTegic.value.DoubleValue
18.825

@<SCITEGIC>MOL_PROPERTY
Bond
SciTegic.value.DoubleValue
0.770

@<SCITEGIC>MOL_PROPERTY
Angle
SciTegic.value.DoubleValue
10.566

@<SCITEGIC>MOL_PROPERTY
Pdih
SciTegic.value.DoubleValue
10.584

@<SCITEGIC>MOL_PROPERTY
Idih
SciTegic.value.DoubleValue
0.000

@<SCITEGIC>MOL_PROPERTY
Tether
SciTegic.value.DoubleValue
0.000

@<TRIPOS>MOLECULE
guest-s17_vm2.mol2 : vm2 ligand conformer 123
          25          25           1
SMALL
USER_CHARGES
 
@<TRIPOS>ATOM
       1    C1      19.483977   18.820076   21.305587 C.3        1 MOL1        -0.1684
       2    H1      18.866745   18.293527   22.039850 H          1 MOL1         0.0833
       3    H2      18.960998   18.654047   20.354184 H          1 MOL1         0.0833
       4    C2      20.871044   18.133147   21.214211 C.3        1 MOL1        -0.1684
       5    H3      20.698399   17.110401   20.852454 H          1 MOL1         0.0833
       6    H4      21.474042   18.622045   20.437321 H          1 MOL1         0.0833
       7    C3      21.704215   18.029638   22.524477 C.3        1 MOL1        -0.1684
       8    H5      22.410644   18.861809   22.612834 H          1 MOL1         0.0833
       9    H6      22.350875   17.147381   22.423540 H          1 MOL1         0.0833
      10    C4      20.903498   17.880064   23.845933 C.3        1 MOL1        -0.1760
      11    H7      20.177067   17.064603   23.735551 H          1 MOL1         0.0833
      12    H8      21.614419   17.523187   24.602488 H          1 MOL1         0.0833
      13    C5      20.205916   19.137165   24.453267 C.3        1 MOL1         0.1219
      14    H9      20.467862   19.117569   25.521116 H          1 MOL1         0.0790
      15    C6      20.636307   20.551613   23.969455 C.3        1 MOL1        -0.1760
      16    H10     19.997845   21.270130   24.500037 H          1 MOL1         0.0833
      17    H11     21.649888   20.744250   24.343391 H          1 MOL1         0.0833
      18    C7      20.604915   20.930435   22.456596 C.3        1 MOL1        -0.1684
      19    H12     21.568775   20.715754   21.983535 H          1 MOL1         0.0833
      20    H13     20.531336   22.025067   22.404348 H          1 MOL1         0.0833
      21    C8      19.465812   20.348666   21.583736 C.3        1 MOL1        -0.1684
      22    H14     18.496034   20.622094   22.021152 H          1 MOL1         0.0833
      23    H15     19.508370   20.861389   20.613336 H          1 MOL1         0.0833
      24    O1      18.788314   19.012197   24.406738 O.3        1 MOL1        -0.5508
      25    H16     18.568879   18.141081   24.794080 H          1 MOL1         0.3780
@<TRIPOS>BOND
    1     1     2    1
    2     1     3    1
    3     1     4    1
    4     4     5    1
    5     4     6    1
    6     4     7    1
    7     7     8    1
    8     7     9    1
    9     7    10    1
   10    10    11    1
   11    10    12    1
   12    10    13    1
   13    13    14    1
   14    13    15    1
   15    15    16    1
   16    15    17    1
   17    15    18    1
   18    18    19    1
   19    18    20    1
   20     1    21    1
   21    18    21    1
   22    21    22    1
   23    21    23    1
   24    13    24    1
   25    24    25    1
@<TRIPOS>SUBSTRUCTURE
       1 MOL1            1 RESIDUE      1      MOL     
@<SCITEGIC>MOL_PROPERTY
VM2 Rank
SciTegic.value.IntegerValue
123

@<SCITEGIC>MOL_PROPERTY
Conf_Id
SciTegic.value.IntegerValue
1294

@<SCITEGIC>MOL_PROPERTY
Probability
SciTegic.value.DoubleValue
0.00

@<SCITEGIC>MOL_PROPERTY
Sum Probability
SciTegic.value.DoubleValue
100.00

@<SCITEGIC>MOL_PROPERTY
Delta G
SciTegic.value.DoubleValue
9.432

@<SCITEGIC>MOL_PROPERTY
G
SciTegic.value.DoubleValue
71.508

@<SCITEGIC>MOL_PROPERTY
E
SciTegic.value.DoubleValue
38.704

@<SCITEGIC>MOL_PROPERTY
-TS
SciTegic.value.DoubleValue
32.803

@<SCITEGIC>MOL_PROPERTY
U+W
SciTegic.value.DoubleValue
18.137

@<SCITEGIC>MOL_PROPERTY
U
SciTegic.value.DoubleValue
20.127

@<SCITEGIC>MOL_PROPERTY
W
SciTegic.value.DoubleValue
-1.991

@<SCITEGIC>MOL_PROPERTY
W(PB)
SciTegic.value.DoubleValue
-4.096

@<SCITEGIC>MOL_PROPERTY
W(SA)
SciTegic.value.DoubleValue
2.106

@<SCITEGIC>MOL_PROPERTY
Valence
SciTegic.value.DoubleValue
21.806

@<SCITEGIC>MOL_PROPERTY
Coulomb
SciTegic.value.DoubleValue
-5.640

@<SCITEGIC>MOL_PROPERTY
VdW
SciTegic.value.DoubleValue
3.961

@<SCITEGIC>MOL_PROPERTY
VdW6
SciTegic.value.DoubleValue
-14.712

@<SCITEGIC>MOL_PROPERTY
VdW12
SciTegic.value.DoubleValue
18.673

@<SCITEGIC>MOL_PROPERTY
Bond
SciTegic.value.DoubleValue
0.774

@<SCITEGIC>MOL_PROPERTY
Angle
SciTegic.value.DoubleValue
10.671

@<SCITEGIC>MOL_PROPERTY
Pdih
SciTegic.value.DoubleValue
10.361

@<SCITEGIC>MOL_PROPERTY
Idih
SciTegic.value.DoubleValue
0.000

@<SCITEGIC>MOL_PROPERTY
Tether
SciTegic.value.DoubleValue
0.000

@<TRIPOS>MOLECULE
guest-s17_vm2.mol2 : vm2 ligand conformer 124
          25          25           1
SMALL
USER_CHARGES
 
@<TRIPOS>ATOM
       1    C1      21.499295   19.574459   21.579289 C.3        1 MOL1        -0.1684
       2    H1      22.209458   19.870029   20.795358 H          1 MOL1         0.0833
       3    H2      22.115683   19.509697   22.481088 H          1 MOL1         0.0833
       4    C2      20.957234   18.165391   21.225929 C.3        1 MOL1        -0.1684
       5    H3      21.828336   17.533342   21.005972 H          1 MOL1         0.0833
       6    H4      20.385550   18.214535   20.289474 H          1 MOL1         0.0833
       7    C3      20.111782   17.433563   22.308205 C.3        1 MOL1        -0.1684
       8    H5      20.235870   16.355703   22.136295 H          1 MOL1         0.0833
       9    H6      19.040274   17.600234   22.155073 H          1 MOL1         0.0833
      10    C4      20.480132   17.721590   23.788451 C.3        1 MOL1        -0.1760
      11    H7      20.016975   16.925279   24.385543 H          1 MOL1         0.0833
      12    H8      21.560527   17.582414   23.923498 H          1 MOL1         0.0833
      13    C5      20.032105   19.072106   24.429661 C.3        1 MOL1         0.1219
      14    H9      19.604197   18.794294   25.403836 H          1 MOL1         0.0790
      15    C6      18.918947   19.908767   23.736230 C.3        1 MOL1        -0.1760
      16    H10     17.970664   19.367020   23.843720 H          1 MOL1         0.0833
      17    H11     18.793951   20.819484   24.336555 H          1 MOL1         0.0833
      18    C7      19.051641   20.349016   22.245656 C.3        1 MOL1        -0.1684
      19    H12     18.410000   21.231013   22.116268 H          1 MOL1         0.0833
      20    H13     18.601232   19.604955   21.580522 H          1 MOL1         0.0833
      21    C8      20.459511   20.720631   21.718686 C.3        1 MOL1        -0.1684
      22    H14     20.324784   21.166981   20.724206 H          1 MOL1         0.0833
      23    H15     20.884605   21.516204   22.345521 H          1 MOL1         0.0833
      24    O1      21.153352   19.897476   24.727892 O.3        1 MOL1        -0.5508
      25    H16     21.784873   19.344841   25.230691 H          1 MOL1         0.3780
@<TRIPOS>BOND
    1     1     2    1
    2     1     3    1
    3     1     4    1
    4     4     5    1
    5     4     6    1
    6     4     7    1
    7     7     8    1
    8     7     9    1
    9     7    10    1
   10    10    11    1
   11    10    12    1
   12    10    13    1
   13    13    14    1
   14    13    15    1
   15    15    16    1
   16    15    17    1
   17    15    18    1
   18    18    19    1
   19    18    20    1
   20     1    21    1
   21    18    21    1
   22    21    22    1
   23    21    23    1
   24    13    24    1
   25    24    25    1
@<TRIPOS>SUBSTRUCTURE
       1 MOL1            1 RESIDUE      1      MOL     
@<SCITEGIC>MOL_PROPERTY
VM2 Rank
SciTegic.value.IntegerValue
124

@<SCITEGIC>MOL_PROPERTY
Conf_Id
SciTegic.value.IntegerValue
1602

@<SCITEGIC>MOL_PROPERTY
Probability
SciTegic.value.DoubleValue
0.00

@<SCITEGIC>MOL_PROPERTY
Sum Probability
SciTegic.value.DoubleValue
100.00

@<SCITEGIC>MOL_PROPERTY
Delta G
SciTegic.value.DoubleValue
9.476

@<SCITEGIC>MOL_PROPERTY
G
SciTegic.value.DoubleValue
71.551

@<SCITEGIC>MOL_PROPERTY
E
SciTegic.value.DoubleValue
38.748

@<SCITEGIC>MOL_PROPERTY
-TS
SciTegic.value.DoubleValue
32.803

@<SCITEGIC>MOL_PROPERTY
U+W
SciTegic.value.DoubleValue
18.181

@<SCITEGIC>MOL_PROPERTY
U
SciTegic.value.DoubleValue
20.127

@<SCITEGIC>MOL_PROPERTY
W
SciTegic.value.DoubleValue
-1.947

@<SCITEGIC>MOL_PROPERTY
W(PB)
SciTegic.value.DoubleValue
-4.073

@<SCITEGIC>MOL_PROPERTY
W(SA)
SciTegic.value.DoubleValue
2.126

@<SCITEGIC>MOL_PROPERTY
Valence
SciTegic.value.DoubleValue
21.806

@<SCITEGIC>MOL_PROPERTY
Coulomb
SciTegic.value.DoubleValue
-5.640

@<SCITEGIC>MOL_PROPERTY
VdW
SciTegic.value.DoubleValue
3.961

@<SCITEGIC>MOL_PROPERTY
VdW6
SciTegic.value.DoubleValue
-14.712

@<SCITEGIC>MOL_PROPERTY
VdW12
SciTegic.value.DoubleValue
18.673

@<SCITEGIC>MOL_PROPERTY
Bond
SciTegic.value.DoubleValue
0.774

@<SCITEGIC>MOL_PROPERTY
Angle
SciTegic.value.DoubleValue
10.672

@<SCITEGIC>MOL_PROPERTY
Pdih
SciTegic.value.DoubleValue
10.361

@<SCITEGIC>MOL_PROPERTY
Idih
SciTegic.value.DoubleValue
0.000

@<SCITEGIC>MOL_PROPERTY
Tether
SciTegic.value.DoubleValue
0.000

