VeraChem MOL file


 16 16  0  0  0  0  0  0  0  0999 V2000     
   19.6971   19.0164   20.9391 C   0  0  0  0  0  0  0  0  0  0  0  0
   19.6785   19.9333   20.3344 H   0  0  0  0  0  0  0  0  0  0  0  0
   20.1313   18.2118   20.3294 H   0  0  0  0  0  0  0  0  0  0  0  0
   18.2981   18.6038   21.4168 C   0  0  0  0  0  0  0  0  0  0  0  0
   17.7280   19.4984   21.7035 H   0  0  0  0  0  0  0  0  0  0  0  0
   17.7318   18.0676   20.6432 H   0  0  0  0  0  0  0  0  0  0  0  0
   18.5586   17.7366   22.6617 C   0  0  0  0  0  0  0  0  0  0  0  0
   18.6890   16.6897   22.3578 H   0  0  0  0  0  0  0  0  0  0  0  0
   17.7164   17.7774   23.3652 H   0  0  0  0  0  0  0  0  0  0  0  0
   19.8756   18.2476   23.2815 C   0  0  0  0  0  0  0  0  0  0  0  0
   20.5433   17.3965   23.4794 H   0  0  0  0  0  0  0  0  0  0  0  0
   20.5130   19.1857   22.2345 C   0  0  0  0  0  0  0  0  0  0  0  0
   20.4511   20.2286   22.5740 H   0  0  0  0  0  0  0  0  0  0  0  0
   21.5724   18.9478   22.0751 H   0  0  0  0  0  0  0  0  0  0  0  0
   19.6066   18.9649   24.4805 O   0  0  0  0  0  0  0  0  0  0  0  0
   19.1944   18.3292   25.1026 H   0  0  0  0  0  0  0  0  0  0  0  0
  1  2  1  0  0  0  0
  1  3  1  0  0  0  0
  1  4  1  0  0  0  0
  4  5  1  0  0  0  0
  4  6  1  0  0  0  0
  4  7  1  0  0  0  0
  7  8  1  0  0  0  0
  7  9  1  0  0  0  0
  7 10  1  0  0  0  0
 10 11  1  0  0  0  0
  1 12  1  0  0  0  0
 10 12  1  0  0  0  0
 12 13  1  0  0  0  0
 12 14  1  0  0  0  0
 10 15  1  0  0  0  0
 15 16  1  0  0  0  0
M  END
> <VM2 Rank>
1

> <Conf_Id>
259

> <Probability>
36.24

> <Sum Probability>
36.24

> <Delta G>
0.000

> <G>
30.218

> <E>
15.547

> <-TS>
14.671

> <U+W>
3.028

> <U>
5.894

> <W>
-2.866

> <W(PB)>
-4.607

> <W(SA)>
1.741

> <Valence>
13.780

> <Coulomb>
-8.518

> <VdW>
0.632

> <VdW6>
-3.302

> <VdW12>
3.934

> <Bond>
0.054

> <Angle>
4.031

> <Pdih>
9.696

> <Idih>
0.000

> <Tether>
0.000

$$$$
VeraChem MOL file


 16 16  0  0  0  0  0  0  0  0999 V2000     
   19.5322   19.3694   21.1298 C   0  0  0  0  0  0  0  0  0  0  0  0
   19.0758   20.3346   21.3902 H   0  0  0  0  0  0  0  0  0  0  0  0
   19.9651   19.4533   20.1237 H   0  0  0  0  0  0  0  0  0  0  0  0
   18.4765   18.2592   21.2230 C   0  0  0  0  0  0  0  0  0  0  0  0
   17.4976   18.5804   20.8418 H   0  0  0  0  0  0  0  0  0  0  0  0
   18.8038   17.3884   20.6381 H   0  0  0  0  0  0  0  0  0  0  0  0
   18.4313   17.8942   22.7187 C   0  0  0  0  0  0  0  0  0  0  0  0
   18.1719   16.8380   22.8660 H   0  0  0  0  0  0  0  0  0  0  0  0
   17.6659   18.5005   23.2219 H   0  0  0  0  0  0  0  0  0  0  0  0
   19.8271   18.2175   23.2928 C   0  0  0  0  0  0  0  0  0  0  0  0
   20.3647   17.2857   23.5211 H   0  0  0  0  0  0  0  0  0  0  0  0
   20.5809   18.9911   22.1913 C   0  0  0  0  0  0  0  0  0  0  0  0
   21.1015   19.8772   22.5778 H   0  0  0  0  0  0  0  0  0  0  0  0
   21.3343   18.3307   21.7423 H   0  0  0  0  0  0  0  0  0  0  0  0
   19.7011   19.0236   24.4584 O   0  0  0  0  0  0  0  0  0  0  0  0
   20.6111   19.2082   24.7730 H   0  0  0  0  0  0  0  0  0  0  0  0
  1  2  1  0  0  0  0
  1  3  1  0  0  0  0
  1  4  1  0  0  0  0
  4  5  1  0  0  0  0
  4  6  1  0  0  0  0
  4  7  1  0  0  0  0
  7  8  1  0  0  0  0
  7  9  1  0  0  0  0
  7 10  1  0  0  0  0
 10 11  1  0  0  0  0
  1 12  1  0  0  0  0
 10 12  1  0  0  0  0
 12 13  1  0  0  0  0
 12 14  1  0  0  0  0
 10 15  1  0  0  0  0
 15 16  1  0  0  0  0
M  END
> <VM2 Rank>
2

> <Conf_Id>
258

> <Probability>
35.19

> <Sum Probability>
71.43

> <Delta G>
0.017

> <G>
30.235

> <E>
15.564

> <-TS>
14.671

> <U+W>
3.044

> <U>
5.894

> <W>
-2.849

> <W(PB)>
-4.592

> <W(SA)>
1.743

> <Valence>
13.780

> <Coulomb>
-8.518

> <VdW>
0.632

> <VdW6>
-3.302

> <VdW12>
3.934

> <Bond>
0.054

> <Angle>
4.031

> <Pdih>
9.696

> <Idih>
0.000

> <Tether>
0.000

$$$$
VeraChem MOL file


 16 16  0  0  0  0  0  0  0  0999 V2000     
   19.5851   19.3562   21.1699 C   0  0  0  0  0  0  0  0  0  0  0  0
   19.4000   20.4294   21.3157 H   0  0  0  0  0  0  0  0  0  0  0  0
   19.9162   19.2131   20.1322 H   0  0  0  0  0  0  0  0  0  0  0  0
   18.2992   18.5558   21.4712 C   0  0  0  0  0  0  0  0  0  0  0  0
   17.4915   19.2416   21.7618 H   0  0  0  0  0  0  0  0  0  0  0  0
   17.9583   17.9931   20.5914 H   0  0  0  0  0  0  0  0  0  0  0  0
   18.6386   17.6062   22.6398 C   0  0  0  0  0  0  0  0  0  0  0  0
   18.8819   16.6109   22.2449 H   0  0  0  0  0  0  0  0  0  0  0  0
   17.8004   17.4920   23.3402 H   0  0  0  0  0  0  0  0  0  0  0  0
   19.8852   18.1925   23.3158 C   0  0  0  0  0  0  0  0  0  0  0  0
   20.4856   17.4116   23.8044 H   0  0  0  0  0  0  0  0  0  0  0  0
   20.6535   18.8594   22.1669 C   0  0  0  0  0  0  0  0  0  0  0  0
   21.3048   19.6710   22.5179 H   0  0  0  0  0  0  0  0  0  0  0  0
   21.2889   18.1082   21.6795 H   0  0  0  0  0  0  0  0  0  0  0  0
   19.4874   19.1849   24.2505 O   0  0  0  0  0  0  0  0  0  0  0  0
   18.9645   19.8295   23.7306 H   0  0  0  0  0  0  0  0  0  0  0  0
  1  2  1  0  0  0  0
  1  3  1  0  0  0  0
  1  4  1  0  0  0  0
  4  5  1  0  0  0  0
  4  6  1  0  0  0  0
  4  7  1  0  0  0  0
  7  8  1  0  0  0  0
  7  9  1  0  0  0  0
  7 10  1  0  0  0  0
 10 11  1  0  0  0  0
  1 12  1  0  0  0  0
 10 12  1  0  0  0  0
 12 13  1  0  0  0  0
 12 14  1  0  0  0  0
 10 15  1  0  0  0  0
 15 16  1  0  0  0  0
M  END
> <VM2 Rank>
3

> <Conf_Id>
20

> <Probability>
28.57

> <Sum Probability>
100.00

> <Delta G>
0.142

> <G>
30.360

> <E>
15.047

> <-TS>
15.313

> <U+W>
2.527

> <U>
4.508

> <W>
-1.981

> <W(PB)>
-3.712

> <W(SA)>
1.732

> <Valence>
14.705

> <Coulomb>
-10.687

> <VdW>
0.490

> <VdW6>
-3.745

> <VdW12>
4.235

> <Bond>
0.068

> <Angle>
3.901

> <Pdih>
10.737

> <Idih>
0.000

> <Tether>
0.000

$$$$
