@<TRIPOS>MOLECULE
guest-4_vm2.mol2 : vm2 ligand conformer 1
          16          16           1
SMALL
USER_CHARGES
 
@<TRIPOS>ATOM
       1    C1      19.697145   19.016376   20.939080 C.3        1 MOL1        -0.1689
       2    H1      19.678549   19.933263   20.334360 H          1 MOL1         0.0830
       3    H2      20.131322   18.211818   20.329367 H          1 MOL1         0.0830
       4    C2      18.298132   18.603759   21.416785 C.3        1 MOL1        -0.1689
       5    H3      17.727990   19.498425   21.703550 H          1 MOL1         0.0830
       6    H4      17.731769   18.067642   20.643172 H          1 MOL1         0.0830
       7    C3      18.558560   17.736611   22.661713 C.3        1 MOL1        -0.1765
       8    H5      18.689023   16.689682   22.357765 H          1 MOL1         0.0830
       9    H6      17.716432   17.777450   23.365186 H          1 MOL1         0.0830
      10    C4      19.875577   18.247641   23.281488 C.3        1 MOL1         0.1214
      11    H7      20.543330   17.396507   23.479437 H          1 MOL1         0.0787
      12    C5      20.512959   19.185708   22.234475 C.3        1 MOL1        -0.1765
      13    H8      20.451120   20.228607   22.574000 H          1 MOL1         0.0830
      14    H9      21.572445   18.947792   22.075096 H          1 MOL1         0.0830
      15    O1      19.606627   18.964907   24.480459 O.3        1 MOL1        -0.5512
      16    H10     19.194379   18.329156   25.102647 H          1 MOL1         0.3776
@<TRIPOS>BOND
    1     1     2    1
    2     1     3    1
    3     1     4    1
    4     4     5    1
    5     4     6    1
    6     4     7    1
    7     7     8    1
    8     7     9    1
    9     7    10    1
   10    10    11    1
   11     1    12    1
   12    10    12    1
   13    12    13    1
   14    12    14    1
   15    10    15    1
   16    15    16    1
@<TRIPOS>SUBSTRUCTURE
       1 MOL1            1 RESIDUE      1      MOL     
@<SCITEGIC>MOL_PROPERTY
VM2 Rank
SciTegic.value.IntegerValue
1

@<SCITEGIC>MOL_PROPERTY
Conf_Id
SciTegic.value.IntegerValue
259

@<SCITEGIC>MOL_PROPERTY
Probability
SciTegic.value.DoubleValue
36.24

@<SCITEGIC>MOL_PROPERTY
Sum Probability
SciTegic.value.DoubleValue
36.24

@<SCITEGIC>MOL_PROPERTY
Delta G
SciTegic.value.DoubleValue
0.000

@<SCITEGIC>MOL_PROPERTY
G
SciTegic.value.DoubleValue
30.218

@<SCITEGIC>MOL_PROPERTY
E
SciTegic.value.DoubleValue
15.547

@<SCITEGIC>MOL_PROPERTY
-TS
SciTegic.value.DoubleValue
14.671

@<SCITEGIC>MOL_PROPERTY
U+W
SciTegic.value.DoubleValue
3.028

@<SCITEGIC>MOL_PROPERTY
U
SciTegic.value.DoubleValue
5.894

@<SCITEGIC>MOL_PROPERTY
W
SciTegic.value.DoubleValue
-2.866

@<SCITEGIC>MOL_PROPERTY
W(PB)
SciTegic.value.DoubleValue
-4.607

@<SCITEGIC>MOL_PROPERTY
W(SA)
SciTegic.value.DoubleValue
1.741

@<SCITEGIC>MOL_PROPERTY
Valence
SciTegic.value.DoubleValue
13.780

@<SCITEGIC>MOL_PROPERTY
Coulomb
SciTegic.value.DoubleValue
-8.518

@<SCITEGIC>MOL_PROPERTY
VdW
SciTegic.value.DoubleValue
0.632

@<SCITEGIC>MOL_PROPERTY
VdW6
SciTegic.value.DoubleValue
-3.302

@<SCITEGIC>MOL_PROPERTY
VdW12
SciTegic.value.DoubleValue
3.934

@<SCITEGIC>MOL_PROPERTY
Bond
SciTegic.value.DoubleValue
0.054

@<SCITEGIC>MOL_PROPERTY
Angle
SciTegic.value.DoubleValue
4.031

@<SCITEGIC>MOL_PROPERTY
Pdih
SciTegic.value.DoubleValue
9.696

@<SCITEGIC>MOL_PROPERTY
Idih
SciTegic.value.DoubleValue
0.000

@<SCITEGIC>MOL_PROPERTY
Tether
SciTegic.value.DoubleValue
0.000

@<TRIPOS>MOLECULE
guest-4_vm2.mol2 : vm2 ligand conformer 2
          16          16           1
SMALL
USER_CHARGES
 
@<TRIPOS>ATOM
       1    C1      19.532172   19.369371   21.129784 C.3        1 MOL1        -0.1689
       2    H1      19.075788   20.334577   21.390198 H          1 MOL1         0.0830
       3    H2      19.965092   19.453278   20.123699 H          1 MOL1         0.0830
       4    C2      18.476482   18.259185   21.223039 C.3        1 MOL1        -0.1689
       5    H3      17.497628   18.580414   20.841759 H          1 MOL1         0.0830
       6    H4      18.803759   17.388383   20.638091 H          1 MOL1         0.0830
       7    C3      18.431276   17.894189   22.718705 C.3        1 MOL1        -0.1765
       8    H5      18.171911   16.837998   22.866036 H          1 MOL1         0.0830
       9    H6      17.665876   18.500527   23.221950 H          1 MOL1         0.0830
      10    C4      19.827111   18.217550   23.292774 C.3        1 MOL1         0.1214
      11    H7      20.364662   17.285665   23.521107 H          1 MOL1         0.0787
      12    C5      20.580858   18.991095   22.191279 C.3        1 MOL1        -0.1765
      13    H8      21.101535   19.877241   22.577753 H          1 MOL1         0.0830
      14    H9      21.334329   18.330653   21.742321 H          1 MOL1         0.0830
      15    O1      19.701100   19.023610   24.458418 O.3        1 MOL1        -0.5512
      16    H10     20.611150   19.208246   24.773009 H          1 MOL1         0.3776
@<TRIPOS>BOND
    1     1     2    1
    2     1     3    1
    3     1     4    1
    4     4     5    1
    5     4     6    1
    6     4     7    1
    7     7     8    1
    8     7     9    1
    9     7    10    1
   10    10    11    1
   11     1    12    1
   12    10    12    1
   13    12    13    1
   14    12    14    1
   15    10    15    1
   16    15    16    1
@<TRIPOS>SUBSTRUCTURE
       1 MOL1            1 RESIDUE      1      MOL     
@<SCITEGIC>MOL_PROPERTY
VM2 Rank
SciTegic.value.IntegerValue
2

@<SCITEGIC>MOL_PROPERTY
Conf_Id
SciTegic.value.IntegerValue
258

@<SCITEGIC>MOL_PROPERTY
Probability
SciTegic.value.DoubleValue
35.19

@<SCITEGIC>MOL_PROPERTY
Sum Probability
SciTegic.value.DoubleValue
71.43

@<SCITEGIC>MOL_PROPERTY
Delta G
SciTegic.value.DoubleValue
0.017

@<SCITEGIC>MOL_PROPERTY
G
SciTegic.value.DoubleValue
30.235

@<SCITEGIC>MOL_PROPERTY
E
SciTegic.value.DoubleValue
15.564

@<SCITEGIC>MOL_PROPERTY
-TS
SciTegic.value.DoubleValue
14.671

@<SCITEGIC>MOL_PROPERTY
U+W
SciTegic.value.DoubleValue
3.044

@<SCITEGIC>MOL_PROPERTY
U
SciTegic.value.DoubleValue
5.894

@<SCITEGIC>MOL_PROPERTY
W
SciTegic.value.DoubleValue
-2.849

@<SCITEGIC>MOL_PROPERTY
W(PB)
SciTegic.value.DoubleValue
-4.592

@<SCITEGIC>MOL_PROPERTY
W(SA)
SciTegic.value.DoubleValue
1.743

@<SCITEGIC>MOL_PROPERTY
Valence
SciTegic.value.DoubleValue
13.780

@<SCITEGIC>MOL_PROPERTY
Coulomb
SciTegic.value.DoubleValue
-8.518

@<SCITEGIC>MOL_PROPERTY
VdW
SciTegic.value.DoubleValue
0.632

@<SCITEGIC>MOL_PROPERTY
VdW6
SciTegic.value.DoubleValue
-3.302

@<SCITEGIC>MOL_PROPERTY
VdW12
SciTegic.value.DoubleValue
3.934

@<SCITEGIC>MOL_PROPERTY
Bond
SciTegic.value.DoubleValue
0.054

@<SCITEGIC>MOL_PROPERTY
Angle
SciTegic.value.DoubleValue
4.031

@<SCITEGIC>MOL_PROPERTY
Pdih
SciTegic.value.DoubleValue
9.696

@<SCITEGIC>MOL_PROPERTY
Idih
SciTegic.value.DoubleValue
0.000

@<SCITEGIC>MOL_PROPERTY
Tether
SciTegic.value.DoubleValue
0.000

@<TRIPOS>MOLECULE
guest-4_vm2.mol2 : vm2 ligand conformer 3
          16          16           1
SMALL
USER_CHARGES
 
@<TRIPOS>ATOM
       1    C1      19.585107   19.356242   21.169900 C.3        1 MOL1        -0.1689
       2    H1      19.399997   20.429419   21.315682 H          1 MOL1         0.0830
       3    H2      19.916243   19.213090   20.132185 H          1 MOL1         0.0830
       4    C2      18.299227   18.555776   21.471212 C.3        1 MOL1        -0.1689
       5    H3      17.491510   19.241621   21.761790 H          1 MOL1         0.0830
       6    H4      17.958276   17.993074   20.591372 H          1 MOL1         0.0830
       7    C3      18.638556   17.606160   22.639767 C.3        1 MOL1        -0.1765
       8    H5      18.881892   16.610928   22.244899 H          1 MOL1         0.0830
       9    H6      17.800449   17.491979   23.340156 H          1 MOL1         0.0830
      10    C4      19.885230   18.192512   23.315776 C.3        1 MOL1         0.1214
      11    H7      20.485586   17.411639   23.804440 H          1 MOL1         0.0787
      12    C5      20.653525   18.859391   22.166885 C.3        1 MOL1        -0.1765
      13    H8      21.304796   19.670976   22.517855 H          1 MOL1         0.0830
      14    H9      21.288944   18.108165   21.679520 H          1 MOL1         0.0830
      15    O1      19.487355   19.184918   24.250459 O.3        1 MOL1        -0.5512
      16    H10     18.964455   19.829498   23.730599 H          1 MOL1         0.3776
@<TRIPOS>BOND
    1     1     2    1
    2     1     3    1
    3     1     4    1
    4     4     5    1
    5     4     6    1
    6     4     7    1
    7     7     8    1
    8     7     9    1
    9     7    10    1
   10    10    11    1
   11     1    12    1
   12    10    12    1
   13    12    13    1
   14    12    14    1
   15    10    15    1
   16    15    16    1
@<TRIPOS>SUBSTRUCTURE
       1 MOL1            1 RESIDUE      1      MOL     
@<SCITEGIC>MOL_PROPERTY
VM2 Rank
SciTegic.value.IntegerValue
3

@<SCITEGIC>MOL_PROPERTY
Conf_Id
SciTegic.value.IntegerValue
20

@<SCITEGIC>MOL_PROPERTY
Probability
SciTegic.value.DoubleValue
28.57

@<SCITEGIC>MOL_PROPERTY
Sum Probability
SciTegic.value.DoubleValue
100.00

@<SCITEGIC>MOL_PROPERTY
Delta G
SciTegic.value.DoubleValue
0.142

@<SCITEGIC>MOL_PROPERTY
G
SciTegic.value.DoubleValue
30.360

@<SCITEGIC>MOL_PROPERTY
E
SciTegic.value.DoubleValue
15.047

@<SCITEGIC>MOL_PROPERTY
-TS
SciTegic.value.DoubleValue
15.313

@<SCITEGIC>MOL_PROPERTY
U+W
SciTegic.value.DoubleValue
2.527

@<SCITEGIC>MOL_PROPERTY
U
SciTegic.value.DoubleValue
4.508

@<SCITEGIC>MOL_PROPERTY
W
SciTegic.value.DoubleValue
-1.981

@<SCITEGIC>MOL_PROPERTY
W(PB)
SciTegic.value.DoubleValue
-3.712

@<SCITEGIC>MOL_PROPERTY
W(SA)
SciTegic.value.DoubleValue
1.732

@<SCITEGIC>MOL_PROPERTY
Valence
SciTegic.value.DoubleValue
14.705

@<SCITEGIC>MOL_PROPERTY
Coulomb
SciTegic.value.DoubleValue
-10.687

@<SCITEGIC>MOL_PROPERTY
VdW
SciTegic.value.DoubleValue
0.490

@<SCITEGIC>MOL_PROPERTY
VdW6
SciTegic.value.DoubleValue
-3.745

@<SCITEGIC>MOL_PROPERTY
VdW12
SciTegic.value.DoubleValue
4.235

@<SCITEGIC>MOL_PROPERTY
Bond
SciTegic.value.DoubleValue
0.068

@<SCITEGIC>MOL_PROPERTY
Angle
SciTegic.value.DoubleValue
3.901

@<SCITEGIC>MOL_PROPERTY
Pdih
SciTegic.value.DoubleValue
10.737

@<SCITEGIC>MOL_PROPERTY
Idih
SciTegic.value.DoubleValue
0.000

@<SCITEGIC>MOL_PROPERTY
Tether
SciTegic.value.DoubleValue
0.000

