VeraChem MOL file


 26 25  0  0  0  0  0  0  0  0999 V2000     
   19.9837   18.6238   26.4861 N   0  3  0  0  0  0  0  0  0  0  0  0
   20.8628   18.0855   26.5331 H   0  0  0  0  0  0  0  0  0  0  0  0
   19.2304   17.9187   26.4755 H   0  0  0  0  0  0  0  0  0  0  0  0
   19.9441   19.4507   25.2166 C   0  0  0  0  0  0  0  0  0  0  0  0
   20.7597   20.1767   25.2638 H   0  0  0  0  0  0  0  0  0  0  0  0
   18.9975   19.9966   25.2015 H   0  0  0  0  0  0  0  0  0  0  0  0
   20.0757   18.6065   23.9359 C   0  0  0  0  0  0  0  0  0  0  0  0
   21.0204   18.0470   23.9630 H   0  0  0  0  0  0  0  0  0  0  0  0
   19.2641   17.8676   23.9008 H   0  0  0  0  0  0  0  0  0  0  0  0
   20.0303   19.4900   22.6695 C   0  0  0  0  0  0  0  0  0  0  0  0
   20.8404   20.2315   22.7111 H   0  0  0  0  0  0  0  0  0  0  0  0
   19.0862   20.0521   22.6489 H   0  0  0  0  0  0  0  0  0  0  0  0
   20.1618   18.6528   21.3767 C   0  0  0  0  0  0  0  0  0  0  0  0
   21.1058   18.0907   21.3971 H   0  0  0  0  0  0  0  0  0  0  0  0
   19.3518   17.9114   21.3349 H   0  0  0  0  0  0  0  0  0  0  0  0
   20.1163   19.5367   20.1103 C   0  0  0  0  0  0  0  0  0  0  0  0
   20.9263   20.2788   20.1462 H   0  0  0  0  0  0  0  0  0  0  0  0
   19.1725   20.0993   20.0839 H   0  0  0  0  0  0  0  0  0  0  0  0
   20.2479   18.6974   18.8214 C   0  0  0  0  0  0  0  0  0  0  0  0
   19.4313   17.9683   18.7398 H   0  0  0  0  0  0  0  0  0  0  0  0
   21.1988   18.1492   18.8025 H   0  0  0  0  0  0  0  0  0  0  0  0
   20.2134   19.3422   17.9337 H   0  0  0  0  0  0  0  0  0  0  0  0
   19.8481   19.5321   27.7004 C   0  0  0  0  0  0  0  0  0  0  0  0
   18.8967   20.0656   27.6454 H   0  0  0  0  0  0  0  0  0  0  0  0
   19.8782   18.9242   28.6075 H   0  0  0  0  0  0  0  0  0  0  0  0
   20.6736   20.2472   27.7081 H   0  0  0  0  0  0  0  0  0  0  0  0
  1  2  1  0  0  0  0
  1  3  1  0  0  0  0
  1  4  1  0  0  0  0
  4  5  1  0  0  0  0
  4  6  1  0  0  0  0
  4  7  1  0  0  0  0
  7  8  1  0  0  0  0
  7  9  1  0  0  0  0
  7 10  1  0  0  0  0
 10 11  1  0  0  0  0
 10 12  1  0  0  0  0
 10 13  1  0  0  0  0
 13 14  1  0  0  0  0
 13 15  1  0  0  0  0
 13 16  1  0  0  0  0
 16 17  1  0  0  0  0
 16 18  1  0  0  0  0
 16 19  1  0  0  0  0
 19 20  1  0  0  0  0
 19 21  1  0  0  0  0
 19 22  1  0  0  0  0
  1 23  1  0  0  0  0
 23 24  1  0  0  0  0
 23 25  1  0  0  0  0
 23 26  1  0  0  0  0
M  END
> <VM2 Rank>
1

> <Conf_Id>
1411

> <Probability>
6.92

> <Sum Probability>
6.92

> <Delta G>
0.000

> <G>
75.466

> <E>
43.303

> <-TS>
32.163

> <U+W>
21.842

> <U>
70.357

> <W>
-48.515

> <W(PB)>
-50.856

> <W(SA)>
2.341

> <Valence>
1.714

> <Coulomb>
68.480

> <VdW>
0.163

> <VdW6>
-5.268

> <VdW12>
5.431

> <Bond>
0.126

> <Angle>
0.350

> <Pdih>
1.238

> <Idih>
0.000

> <Tether>
0.000

$$$$
VeraChem MOL file


 26 25  0  0  0  0  0  0  0  0999 V2000     
   20.3923   19.0036   26.6222 N   0  3  0  0  0  0  0  0  0  0  0  0
   20.8629   19.5629   27.3515 H   0  0  0  0  0  0  0  0  0  0  0  0
   20.8764   18.0925   26.6321 H   0  0  0  0  0  0  0  0  0  0  0  0
   20.5687   19.6777   25.2718 C   0  0  0  0  0  0  0  0  0  0  0  0
   21.6300   19.9160   25.1643 H   0  0  0  0  0  0  0  0  0  0  0  0
   20.0105   20.6172   25.2890 H   0  0  0  0  0  0  0  0  0  0  0  0
   20.1225   18.8244   24.0671 C   0  0  0  0  0  0  0  0  0  0  0  0
   20.6520   17.8627   24.0860 H   0  0  0  0  0  0  0  0  0  0  0  0
   19.0502   18.6034   24.1455 H   0  0  0  0  0  0  0  0  0  0  0  0
   20.4031   19.5463   22.7305 C   0  0  0  0  0  0  0  0  0  0  0  0
   21.4764   19.7694   22.6529 H   0  0  0  0  0  0  0  0  0  0  0  0
   19.8767   20.5110   22.7181 H   0  0  0  0  0  0  0  0  0  0  0  0
   19.9616   18.7009   21.5140 C   0  0  0  0  0  0  0  0  0  0  0  0
   20.4877   17.7362   21.5264 H   0  0  0  0  0  0  0  0  0  0  0  0
   18.8883   18.4780   21.5912 H   0  0  0  0  0  0  0  0  0  0  0  0
   20.2425   19.4231   20.1774 C   0  0  0  0  0  0  0  0  0  0  0  0
   21.3155   19.6461   20.0942 H   0  0  0  0  0  0  0  0  0  0  0  0
   19.7163   20.3879   20.1591 H   0  0  0  0  0  0  0  0  0  0  0  0
   19.8003   18.5760   18.9651 C   0  0  0  0  0  0  0  0  0  0  0  0
   20.3352   17.6177   18.9367 H   0  0  0  0  0  0  0  0  0  0  0  0
   20.0077   19.1052   18.0260 H   0  0  0  0  0  0  0  0  0  0  0  0
   18.7235   18.3654   19.0021 H   0  0  0  0  0  0  0  0  0  0  0  0
   18.9170   18.8379   26.9689 C   0  0  0  0  0  0  0  0  0  0  0  0
   18.8315   18.3853   27.9593 H   0  0  0  0  0  0  0  0  0  0  0  0
   18.4361   19.8185   26.9690 H   0  0  0  0  0  0  0  0  0  0  0  0
   18.4415   18.1918   26.2282 H   0  0  0  0  0  0  0  0  0  0  0  0
  1  2  1  0  0  0  0
  1  3  1  0  0  0  0
  1  4  1  0  0  0  0
  4  5  1  0  0  0  0
  4  6  1  0  0  0  0
  4  7  1  0  0  0  0
  7  8  1  0  0  0  0
  7  9  1  0  0  0  0
  7 10  1  0  0  0  0
 10 11  1  0  0  0  0
 10 12  1  0  0  0  0
 10 13  1  0  0  0  0
 13 14  1  0  0  0  0
 13 15  1  0  0  0  0
 13 16  1  0  0  0  0
 16 17  1  0  0  0  0
 16 18  1  0  0  0  0
 16 19  1  0  0  0  0
 19 20  1  0  0  0  0
 19 21  1  0  0  0  0
 19 22  1  0  0  0  0
  1 23  1  0  0  0  0
 23 24  1  0  0  0  0
 23 25  1  0  0  0  0
 23 26  1  0  0  0  0
M  END
> <VM2 Rank>
2

> <Conf_Id>
1192

> <Probability>
4.26

> <Sum Probability>
11.17

> <Delta G>
0.290

> <G>
75.756

> <E>
43.422

> <-TS>
32.333

> <U+W>
21.960

> <U>
70.745

> <W>
-48.785

> <W(PB)>
-51.114

> <W(SA)>
2.329

> <Valence>
1.993

> <Coulomb>
68.323

> <VdW>
0.429

> <VdW6>
-5.973

> <VdW12>
6.402

> <Bond>
0.161

> <Angle>
0.472

> <Pdih>
1.360

> <Idih>
0.000

> <Tether>
0.000

$$$$
VeraChem MOL file


 26 25  0  0  0  0  0  0  0  0999 V2000     
   19.4984   18.9123   26.5906 N   0  3  0  0  0  0  0  0  0  0  0  0
   19.2090   17.9221   26.5732 H   0  0  0  0  0  0  0  0  0  0  0  0
   18.8747   19.3597   27.2811 H   0  0  0  0  0  0  0  0  0  0  0  0
   19.2843   19.5464   25.2263 C   0  0  0  0  0  0  0  0  0  0  0  0
   19.6384   20.5791   25.2758 H   0  0  0  0  0  0  0  0  0  0  0  0
   18.2069   19.5658   25.0431 H   0  0  0  0  0  0  0  0  0  0  0  0
   19.9770   18.8096   24.0619 C   0  0  0  0  0  0  0  0  0  0  0  0
   21.0637   18.8094   24.2168 H   0  0  0  0  0  0  0  0  0  0  0  0
   19.6530   17.7605   24.0507 H   0  0  0  0  0  0  0  0  0  0  0  0
   19.6505   19.4693   22.7038 C   0  0  0  0  0  0  0  0  0  0  0  0
   19.9704   20.5206   22.7214 H   0  0  0  0  0  0  0  0  0  0  0  0
   18.5624   19.4711   22.5497 H   0  0  0  0  0  0  0  0  0  0  0  0
   20.3380   18.7394   21.5274 C   0  0  0  0  0  0  0  0  0  0  0  0
   21.4261   18.7378   21.6812 H   0  0  0  0  0  0  0  0  0  0  0  0
   20.0185   17.6881   21.5099 H   0  0  0  0  0  0  0  0  0  0  0  0
   20.0112   19.3994   20.1692 C   0  0  0  0  0  0  0  0  0  0  0  0
   20.3310   20.4509   20.1809 H   0  0  0  0  0  0  0  0  0  0  0  0
   18.9238   19.4010   20.0094 H   0  0  0  0  0  0  0  0  0  0  0  0
   20.6996   18.6680   18.9970 C   0  0  0  0  0  0  0  0  0  0  0  0
   21.7914   18.6797   19.1109 H   0  0  0  0  0  0  0  0  0  0  0  0
   20.4556   19.1509   18.0419 H   0  0  0  0  0  0  0  0  0  0  0  0
   20.3732   17.6215   18.9382 H   0  0  0  0  0  0  0  0  0  0  0  0
   20.9489   19.0457   27.0407 C   0  0  0  0  0  0  0  0  0  0  0  0
   21.2205   20.1032   27.0673 H   0  0  0  0  0  0  0  0  0  0  0  0
   21.0546   18.6127   28.0380 H   0  0  0  0  0  0  0  0  0  0  0  0
   21.5957   18.5142   26.3398 H   0  0  0  0  0  0  0  0  0  0  0  0
  1  2  1  0  0  0  0
  1  3  1  0  0  0  0
  1  4  1  0  0  0  0
  4  5  1  0  0  0  0
  4  6  1  0  0  0  0
  4  7  1  0  0  0  0
  7  8  1  0  0  0  0
  7  9  1  0  0  0  0
  7 10  1  0  0  0  0
 10 11  1  0  0  0  0
 10 12  1  0  0  0  0
 10 13  1  0  0  0  0
 13 14  1  0  0  0  0
 13 15  1  0  0  0  0
 13 16  1  0  0  0  0
 16 17  1  0  0  0  0
 16 18  1  0  0  0  0
 16 19  1  0  0  0  0
 19 20  1  0  0  0  0
 19 21  1  0  0  0  0
 19 22  1  0  0  0  0
  1 23  1  0  0  0  0
 23 24  1  0  0  0  0
 23 25  1  0  0  0  0
 23 26  1  0  0  0  0
M  END
> <VM2 Rank>
3

> <Conf_Id>
37

> <Probability>
4.21

> <Sum Probability>
15.38

> <Delta G>
0.296

> <G>
75.762

> <E>
43.429

> <-TS>
32.333

> <U+W>
21.967

> <U>
70.745

> <W>
-48.778

> <W(PB)>
-51.115

> <W(SA)>
2.337

> <Valence>
1.993

> <Coulomb>
68.323

> <VdW>
0.429

> <VdW6>
-5.973

> <VdW12>
6.403

> <Bond>
0.161

> <Angle>
0.472

> <Pdih>
1.360

> <Idih>
0.000

> <Tether>
0.000

$$$$
VeraChem MOL file


 26 25  0  0  0  0  0  0  0  0999 V2000     
   19.3272   19.1681   25.9039 N   0  3  0  0  0  0  0  0  0  0  0  0
   18.7828   18.2916   25.9026 H   0  0  0  0  0  0  0  0  0  0  0  0
   18.8267   19.8054   25.2664 H   0  0  0  0  0  0  0  0  0  0  0  0
   20.7303   18.9115   25.3886 C   0  0  0  0  0  0  0  0  0  0  0  0
   21.2210   18.2345   26.0926 H   0  0  0  0  0  0  0  0  0  0  0  0
   21.2711   19.8612   25.3953 H   0  0  0  0  0  0  0  0  0  0  0  0
   20.7755   18.2988   23.9749 C   0  0  0  0  0  0  0  0  0  0  0  0
   21.8196   18.0572   23.7351 H   0  0  0  0  0  0  0  0  0  0  0  0
   20.2254   17.3483   23.9694 H   0  0  0  0  0  0  0  0  0  0  0  0
   20.2077   19.2478   22.8928 C   0  0  0  0  0  0  0  0  0  0  0  0
   20.7445   20.2061   22.9287 H   0  0  0  0  0  0  0  0  0  0  0  0
   19.1521   19.4659   23.1028 H   0  0  0  0  0  0  0  0  0  0  0  0
   20.3293   18.6416   21.4762 C   0  0  0  0  0  0  0  0  0  0  0  0
   21.3844   18.4262   21.2575 H   0  0  0  0  0  0  0  0  0  0  0  0
   19.7954   17.6818   21.4402 H   0  0  0  0  0  0  0  0  0  0  0  0
   19.7623   19.5870   20.3936 C   0  0  0  0  0  0  0  0  0  0  0  0
   20.2946   20.5481   20.4243 H   0  0  0  0  0  0  0  0  0  0  0  0
   18.7058   19.8033   20.6057 H   0  0  0  0  0  0  0  0  0  0  0  0
   19.8862   18.9783   18.9804 C   0  0  0  0  0  0  0  0  0  0  0  0
   19.4786   19.6637   18.2260 H   0  0  0  0  0  0  0  0  0  0  0  0
   19.3347   18.0318   18.9083 H   0  0  0  0  0  0  0  0  0  0  0  0
   20.9358   18.7826   18.7254 H   0  0  0  0  0  0  0  0  0  0  0  0
   19.3896   19.7569   27.3064 C   0  0  0  0  0  0  0  0  0  0  0  0
   19.9426   20.6983   27.2764 H   0  0  0  0  0  0  0  0  0  0  0  0
   18.3737   19.9369   27.6649 H   0  0  0  0  0  0  0  0  0  0  0  0
   19.8952   19.0516   27.9697 H   0  0  0  0  0  0  0  0  0  0  0  0
  1  2  1  0  0  0  0
  1  3  1  0  0  0  0
  1  4  1  0  0  0  0
  4  5  1  0  0  0  0
  4  6  1  0  0  0  0
  4  7  1  0  0  0  0
  7  8  1  0  0  0  0
  7  9  1  0  0  0  0
  7 10  1  0  0  0  0
 10 11  1  0  0  0  0
 10 12  1  0  0  0  0
 10 13  1  0  0  0  0
 13 14  1  0  0  0  0
 13 15  1  0  0  0  0
 13 16  1  0  0  0  0
 16 17  1  0  0  0  0
 16 18  1  0  0  0  0
 16 19  1  0  0  0  0
 19 20  1  0  0  0  0
 19 21  1  0  0  0  0
 19 22  1  0  0  0  0
  1 23  1  0  0  0  0
 23 24  1  0  0  0  0
 23 25  1  0  0  0  0
 23 26  1  0  0  0  0
M  END
> <VM2 Rank>
4

> <Conf_Id>
1284

> <Probability>
3.12

> <Sum Probability>
18.50

> <Delta G>
0.475

> <G>
75.941

> <E>
43.686

> <-TS>
32.255

> <U+W>
22.224

> <U>
71.143

> <W>
-48.919

> <W(PB)>
-51.255

> <W(SA)>
2.337

> <Valence>
1.835

> <Coulomb>
69.101

> <VdW>
0.206

> <VdW6>
-5.849

> <VdW12>
6.055

> <Bond>
0.142

> <Angle>
0.413

> <Pdih>
1.279

> <Idih>
0.000

> <Tether>
0.000

$$$$
VeraChem MOL file


 26 25  0  0  0  0  0  0  0  0999 V2000     
   20.5559   19.2935   25.9475 N   0  3  0  0  0  0  0  0  0  0  0  0
   20.9610   20.0232   25.3420 H   0  0  0  0  0  0  0  0  0  0  0  0
   21.2647   18.5448   25.9906 H   0  0  0  0  0  0  0  0  0  0  0  0
   19.2731   18.7628   25.3370 C   0  0  0  0  0  0  0  0  0  0  0  0
   18.5527   19.5838   25.2990 H   0  0  0  0  0  0  0  0  0  0  0  0
   18.8809   17.9958   26.0096 H   0  0  0  0  0  0  0  0  0  0  0  0
   19.4515   18.1637   23.9280 C   0  0  0  0  0  0  0  0  0  0  0  0
   20.1810   17.3437   23.9678 H   0  0  0  0  0  0  0  0  0  0  0  0
   18.4970   17.7183   23.6173 H   0  0  0  0  0  0  0  0  0  0  0  0
   19.8907   19.2155   22.8816 C   0  0  0  0  0  0  0  0  0  0  0  0
   20.8634   19.6403   23.1635 H   0  0  0  0  0  0  0  0  0  0  0  0
   19.1706   20.0456   22.8730 H   0  0  0  0  0  0  0  0  0  0  0  0
   19.9933   18.6073   21.4643 C   0  0  0  0  0  0  0  0  0  0  0  0
   20.7109   17.7751   21.4725 H   0  0  0  0  0  0  0  0  0  0  0  0
   19.0212   18.1852   21.1738 H   0  0  0  0  0  0  0  0  0  0  0  0
   20.4325   19.6553   20.4174 C   0  0  0  0  0  0  0  0  0  0  0  0
   21.4062   20.0786   20.7014 H   0  0  0  0  0  0  0  0  0  0  0  0
   19.7165   20.4892   20.4039 H   0  0  0  0  0  0  0  0  0  0  0  0
   20.5330   19.0444   19.0033 C   0  0  0  0  0  0  0  0  0  0  0  0
   21.2676   18.2290   18.9767 H   0  0  0  0  0  0  0  0  0  0  0  0
   20.8459   19.8032   18.2744 H   0  0  0  0  0  0  0  0  0  0  0  0
   19.5648   18.6429   18.6768 H   0  0  0  0  0  0  0  0  0  0  0  0
   20.2779   19.8476   27.3379 C   0  0  0  0  0  0  0  0  0  0  0  0
   19.8798   19.0501   27.9692 H   0  0  0  0  0  0  0  0  0  0  0  0
   21.2090   20.2263   27.7654 H   0  0  0  0  0  0  0  0  0  0  0  0
   19.5499   20.6583   27.2625 H   0  0  0  0  0  0  0  0  0  0  0  0
  1  2  1  0  0  0  0
  1  3  1  0  0  0  0
  1  4  1  0  0  0  0
  4  5  1  0  0  0  0
  4  6  1  0  0  0  0
  4  7  1  0  0  0  0
  7  8  1  0  0  0  0
  7  9  1  0  0  0  0
  7 10  1  0  0  0  0
 10 11  1  0  0  0  0
 10 12  1  0  0  0  0
 10 13  1  0  0  0  0
 13 14  1  0  0  0  0
 13 15  1  0  0  0  0
 13 16  1  0  0  0  0
 16 17  1  0  0  0  0
 16 18  1  0  0  0  0
 16 19  1  0  0  0  0
 19 20  1  0  0  0  0
 19 21  1  0  0  0  0
 19 22  1  0  0  0  0
  1 23  1  0  0  0  0
 23 24  1  0  0  0  0
 23 25  1  0  0  0  0
 23 26  1  0  0  0  0
M  END
> <VM2 Rank>
5

> <Conf_Id>
484

> <Probability>
3.10

> <Sum Probability>
21.61

> <Delta G>
0.478

> <G>
75.944

> <E>
43.689

> <-TS>
32.255

> <U+W>
22.227

> <U>
71.142

> <W>
-48.916

> <W(PB)>
-51.253

> <W(SA)>
2.337

> <Valence>
1.835

> <Coulomb>
69.101

> <VdW>
0.206

> <VdW6>
-5.849

> <VdW12>
6.055

> <Bond>
0.142

> <Angle>
0.413

> <Pdih>
1.279

> <Idih>
0.000

> <Tether>
0.000

$$$$
VeraChem MOL file


 26 25  0  0  0  0  0  0  0  0999 V2000     
   19.9280   18.8065   26.2896 N   0  3  0  0  0  0  0  0  0  0  0  0
   20.7994   19.0415   26.7899 H   0  0  0  0  0  0  0  0  0  0  0  0
   19.8664   17.7767   26.3147 H   0  0  0  0  0  0  0  0  0  0  0  0
   20.0012   19.2913   24.8557 C   0  0  0  0  0  0  0  0  0  0  0  0
   20.0759   20.3815   24.8737 H   0  0  0  0  0  0  0  0  0  0  0  0
   19.0646   19.0178   24.3640 H   0  0  0  0  0  0  0  0  0  0  0  0
   21.1918   18.7031   24.0742 C   0  0  0  0  0  0  0  0  0  0  0  0
   22.1233   18.9473   24.6021 H   0  0  0  0  0  0  0  0  0  0  0  0
   21.1177   17.6076   24.0576 H   0  0  0  0  0  0  0  0  0  0  0  0
   21.2800   19.2401   22.6261 C   0  0  0  0  0  0  0  0  0  0  0  0
   22.1972   18.8521   22.1618 H   0  0  0  0  0  0  0  0  0  0  0  0
   21.3817   20.3342   22.6467 H   0  0  0  0  0  0  0  0  0  0  0  0
   20.0626   18.8450   21.7556 C   0  0  0  0  0  0  0  0  0  0  0  0
   19.9439   17.7526   21.7643 H   0  0  0  0  0  0  0  0  0  0  0  0
   19.1430   19.2683   22.1814 H   0  0  0  0  0  0  0  0  0  0  0  0
   20.2165   19.3334   20.2979 C   0  0  0  0  0  0  0  0  0  0  0  0
   21.1299   18.9087   19.8582 H   0  0  0  0  0  0  0  0  0  0  0  0
   20.3363   20.4258   20.2833 H   0  0  0  0  0  0  0  0  0  0  0  0
   19.0011   18.9402   19.4311 C   0  0  0  0  0  0  0  0  0  0  0  0
   19.1291   19.2950   18.4003 H   0  0  0  0  0  0  0  0  0  0  0  0
   18.0757   19.3795   19.8258 H   0  0  0  0  0  0  0  0  0  0  0  0
   18.8753   17.8501   19.3987 H   0  0  0  0  0  0  0  0  0  0  0  0
   18.7270   19.4305   26.9867 C   0  0  0  0  0  0  0  0  0  0  0  0
   18.8308   20.5177   26.9767 H   0  0  0  0  0  0  0  0  0  0  0  0
   17.8152   19.1408   26.4597 H   0  0  0  0  0  0  0  0  0  0  0  0
   18.6861   19.0734   28.0182 H   0  0  0  0  0  0  0  0  0  0  0  0
  1  2  1  0  0  0  0
  1  3  1  0  0  0  0
  1  4  1  0  0  0  0
  4  5  1  0  0  0  0
  4  6  1  0  0  0  0
  4  7  1  0  0  0  0
  7  8  1  0  0  0  0
  7  9  1  0  0  0  0
  7 10  1  0  0  0  0
 10 11  1  0  0  0  0
 10 12  1  0  0  0  0
 10 13  1  0  0  0  0
 13 14  1  0  0  0  0
 13 15  1  0  0  0  0
 13 16  1  0  0  0  0
 16 17  1  0  0  0  0
 16 18  1  0  0  0  0
 16 19  1  0  0  0  0
 19 20  1  0  0  0  0
 19 21  1  0  0  0  0
 19 22  1  0  0  0  0
  1 23  1  0  0  0  0
 23 24  1  0  0  0  0
 23 25  1  0  0  0  0
 23 26  1  0  0  0  0
M  END
> <VM2 Rank>
6

> <Conf_Id>
1273

> <Probability>
2.72

> <Sum Probability>
24.33

> <Delta G>
0.556

> <G>
76.022

> <E>
43.762

> <-TS>
32.260

> <U+W>
22.300

> <U>
71.138

> <W>
-48.837

> <W(PB)>
-51.182

> <W(SA)>
2.344

> <Valence>
2.016

> <Coulomb>
68.932

> <VdW>
0.190

> <VdW6>
-5.902

> <VdW12>
6.091

> <Bond>
0.149

> <Angle>
0.477

> <Pdih>
1.390

> <Idih>
0.000

> <Tether>
0.000

$$$$
VeraChem MOL file


 26 25  0  0  0  0  0  0  0  0999 V2000     
   20.0150   18.8154   26.2927 N   0  3  0  0  0  0  0  0  0  0  0  0
   20.2811   17.8191   26.3295 H   0  0  0  0  0  0  0  0  0  0  0  0
   19.0812   18.8662   26.7290 H   0  0  0  0  0  0  0  0  0  0  0  0
   19.9461   19.2856   24.8538 C   0  0  0  0  0  0  0  0  0  0  0  0
   20.9507   19.2102   24.4308 H   0  0  0  0  0  0  0  0  0  0  0  0
   19.6519   20.3382   24.8586 H   0  0  0  0  0  0  0  0  0  0  0  0
   18.9564   18.4749   23.9950 C   0  0  0  0  0  0  0  0  0  0  0  0
   19.2510   17.4170   23.9915 H   0  0  0  0  0  0  0  0  0  0  0  0
   17.9601   18.5224   24.4546 H   0  0  0  0  0  0  0  0  0  0  0  0
   18.8633   18.9935   22.5405 C   0  0  0  0  0  0  0  0  0  0  0  0
   18.5418   20.0443   22.5461 H   0  0  0  0  0  0  0  0  0  0  0  0
   18.0780   18.4317   22.0159 H   0  0  0  0  0  0  0  0  0  0  0  0
   20.1933   18.8583   21.7603 C   0  0  0  0  0  0  0  0  0  0  0  0
   20.9764   19.4554   22.2464 H   0  0  0  0  0  0  0  0  0  0  0  0
   20.5290   17.8123   21.7850 H   0  0  0  0  0  0  0  0  0  0  0  0
   20.0465   19.3160   20.2919 C   0  0  0  0  0  0  0  0  0  0  0  0
   19.7100   20.3619   20.2611 H   0  0  0  0  0  0  0  0  0  0  0  0
   19.2706   18.7190   19.7923 H   0  0  0  0  0  0  0  0  0  0  0  0
   21.3738   19.1823   19.5152 C   0  0  0  0  0  0  0  0  0  0  0  0
   21.2494   19.5114   18.4754 H   0  0  0  0  0  0  0  0  0  0  0  0
   21.7190   18.1403   19.4995 H   0  0  0  0  0  0  0  0  0  0  0  0
   22.1616   19.7965   19.9706 H   0  0  0  0  0  0  0  0  0  0  0  0
   21.0136   19.6639   27.0677 C   0  0  0  0  0  0  0  0  0  0  0  0
   20.6935   20.7079   27.0426 H   0  0  0  0  0  0  0  0  0  0  0  0
   21.0533   19.3151   28.1020 H   0  0  0  0  0  0  0  0  0  0  0  0
   21.9996   19.5679   26.6079 H   0  0  0  0  0  0  0  0  0  0  0  0
  1  2  1  0  0  0  0
  1  3  1  0  0  0  0
  1  4  1  0  0  0  0
  4  5  1  0  0  0  0
  4  6  1  0  0  0  0
  4  7  1  0  0  0  0
  7  8  1  0  0  0  0
  7  9  1  0  0  0  0
  7 10  1  0  0  0  0
 10 11  1  0  0  0  0
 10 12  1  0  0  0  0
 10 13  1  0  0  0  0
 13 14  1  0  0  0  0
 13 15  1  0  0  0  0
 13 16  1  0  0  0  0
 16 17  1  0  0  0  0
 16 18  1  0  0  0  0
 16 19  1  0  0  0  0
 19 20  1  0  0  0  0
 19 21  1  0  0  0  0
 19 22  1  0  0  0  0
  1 23  1  0  0  0  0
 23 24  1  0  0  0  0
 23 25  1  0  0  0  0
 23 26  1  0  0  0  0
M  END
> <VM2 Rank>
7

> <Conf_Id>
934

> <Probability>
2.56

> <Sum Probability>
26.89

> <Delta G>
0.592

> <G>
76.058

> <E>
43.798

> <-TS>
32.260

> <U+W>
22.336

> <U>
71.138

> <W>
-48.802

> <W(PB)>
-51.136

> <W(SA)>
2.335

> <Valence>
2.016

> <Coulomb>
68.932

> <VdW>
0.190

> <VdW6>
-5.902

> <VdW12>
6.091

> <Bond>
0.149

> <Angle>
0.477

> <Pdih>
1.390

> <Idih>
0.000

> <Tether>
0.000

$$$$
VeraChem MOL file


 26 25  0  0  0  0  0  0  0  0999 V2000     
   19.5903   19.7662   26.0204 N   0  3  0  0  0  0  0  0  0  0  0  0
   18.9706   19.9966   26.8132 H   0  0  0  0  0  0  0  0  0  0  0  0
   19.4496   20.5282   25.3405 H   0  0  0  0  0  0  0  0  0  0  0  0
   19.1662   18.4381   25.4124 C   0  0  0  0  0  0  0  0  0  0  0  0
   18.0901   18.4923   25.2290 H   0  0  0  0  0  0  0  0  0  0  0  0
   19.3405   17.6614   26.1613 H   0  0  0  0  0  0  0  0  0  0  0  0
   19.8805   18.0565   24.0973 C   0  0  0  0  0  0  0  0  0  0  0  0
   20.9569   17.9407   24.2782 H   0  0  0  0  0  0  0  0  0  0  0  0
   19.5134   17.0718   23.7790 H   0  0  0  0  0  0  0  0  0  0  0  0
   19.6410   19.0832   22.9649 C   0  0  0  0  0  0  0  0  0  0  0  0
   20.0434   20.0619   23.2587 H   0  0  0  0  0  0  0  0  0  0  0  0
   18.5607   19.2143   22.8117 H   0  0  0  0  0  0  0  0  0  0  0  0
   20.3004   18.6402   21.6391 C   0  0  0  0  0  0  0  0  0  0  0  0
   21.3801   18.5058   21.7928 H   0  0  0  0  0  0  0  0  0  0  0  0
   19.8987   17.6631   21.3368 H   0  0  0  0  0  0  0  0  0  0  0  0
   20.0653   19.6654   20.5073 C   0  0  0  0  0  0  0  0  0  0  0  0
   20.4682   20.6442   20.8033 H   0  0  0  0  0  0  0  0  0  0  0  0
   18.9863   19.8021   20.3485 H   0  0  0  0  0  0  0  0  0  0  0  0
   20.7248   19.2194   19.1849 C   0  0  0  0  0  0  0  0  0  0  0  0
   21.8104   19.1072   19.3032 H   0  0  0  0  0  0  0  0  0  0  0  0
   20.5471   19.9596   18.3940 H   0  0  0  0  0  0  0  0  0  0  0  0
   20.3170   18.2586   18.8446 H   0  0  0  0  0  0  0  0  0  0  0  0
   21.0396   19.7210   26.4907 C   0  0  0  0  0  0  0  0  0  0  0  0
   21.1547   18.9173   27.2213 H   0  0  0  0  0  0  0  0  0  0  0  0
   21.6917   19.5397   25.6339 H   0  0  0  0  0  0  0  0  0  0  0  0
   21.2958   20.6776   26.9513 H   0  0  0  0  0  0  0  0  0  0  0  0
  1  2  1  0  0  0  0
  1  3  1  0  0  0  0
  1  4  1  0  0  0  0
  4  5  1  0  0  0  0
  4  6  1  0  0  0  0
  4  7  1  0  0  0  0
  7  8  1  0  0  0  0
  7  9  1  0  0  0  0
  7 10  1  0  0  0  0
 10 11  1  0  0  0  0
 10 12  1  0  0  0  0
 10 13  1  0  0  0  0
 13 14  1  0  0  0  0
 13 15  1  0  0  0  0
 13 16  1  0  0  0  0
 16 17  1  0  0  0  0
 16 18  1  0  0  0  0
 16 19  1  0  0  0  0
 19 20  1  0  0  0  0
 19 21  1  0  0  0  0
 19 22  1  0  0  0  0
  1 23  1  0  0  0  0
 23 24  1  0  0  0  0
 23 25  1  0  0  0  0
 23 26  1  0  0  0  0
M  END
> <VM2 Rank>
8

> <Conf_Id>
1544

> <Probability>
2.55

> <Sum Probability>
29.44

> <Delta G>
0.595

> <G>
76.061

> <E>
43.581

> <-TS>
32.479

> <U+W>
22.120

> <U>
71.480

> <W>
-49.360

> <W(PB)>
-51.654

> <W(SA)>
2.294

> <Valence>
2.084

> <Coulomb>
68.999

> <VdW>
0.396

> <VdW6>
-6.753

> <VdW12>
7.148

> <Bond>
0.184

> <Angle>
0.576

> <Pdih>
1.325

> <Idih>
0.000

> <Tether>
0.000

$$$$
VeraChem MOL file


 26 25  0  0  0  0  0  0  0  0999 V2000     
   19.9279   18.7435   26.4135 N   0  3  0  0  0  0  0  0  0  0  0  0
   20.5502   17.9220   26.4656 H   0  0  0  0  0  0  0  0  0  0  0  0
   18.9715   18.3705   26.5181 H   0  0  0  0  0  0  0  0  0  0  0  0
   20.0778   19.4288   25.0700 C   0  0  0  0  0  0  0  0  0  0  0  0
   21.1028   19.8009   24.9960 H   0  0  0  0  0  0  0  0  0  0  0  0
   19.3986   20.2848   25.0526 H   0  0  0  0  0  0  0  0  0  0  0  0
   19.7754   18.5033   23.8775 C   0  0  0  0  0  0  0  0  0  0  0  0
   20.4490   17.6365   23.9080 H   0  0  0  0  0  0  0  0  0  0  0  0
   18.7504   18.1187   23.9652 H   0  0  0  0  0  0  0  0  0  0  0  0
   19.9409   19.2433   22.5316 C   0  0  0  0  0  0  0  0  0  0  0  0
   20.9651   19.6329   22.4603 H   0  0  0  0  0  0  0  0  0  0  0  0
   19.2668   20.1107   22.5054 H   0  0  0  0  0  0  0  0  0  0  0  0
   19.6425   18.3192   21.3262 C   0  0  0  0  0  0  0  0  0  0  0  0
   20.3487   17.4774   21.3203 H   0  0  0  0  0  0  0  0  0  0  0  0
   18.6419   17.8817   21.4482 H   0  0  0  0  0  0  0  0  0  0  0  0
   19.6964   19.0480   19.9615 C   0  0  0  0  0  0  0  0  0  0  0  0
   18.9752   19.8773   19.9541 H   0  0  0  0  0  0  0  0  0  0  0  0
   19.3705   18.3511   19.1766 H   0  0  0  0  0  0  0  0  0  0  0  0
   21.1031   19.5791   19.6029 C   0  0  0  0  0  0  0  0  0  0  0  0
   21.4237   20.3700   20.2921 H   0  0  0  0  0  0  0  0  0  0  0  0
   21.1068   20.0033   18.5905 H   0  0  0  0  0  0  0  0  0  0  0  0
   21.8486   18.7739   19.6317 H   0  0  0  0  0  0  0  0  0  0  0  0
   20.2440   19.7248   27.5338 C   0  0  0  0  0  0  0  0  0  0  0  0
   19.5523   20.5683   27.4783 H   0  0  0  0  0  0  0  0  0  0  0  0
   20.1323   19.2187   28.4953 H   0  0  0  0  0  0  0  0  0  0  0  0
   21.2707   20.0800   27.4211 H   0  0  0  0  0  0  0  0  0  0  0  0
  1  2  1  0  0  0  0
  1  3  1  0  0  0  0
  1  4  1  0  0  0  0
  4  5  1  0  0  0  0
  4  6  1  0  0  0  0
  4  7  1  0  0  0  0
  7  8  1  0  0  0  0
  7  9  1  0  0  0  0
  7 10  1  0  0  0  0
 10 11  1  0  0  0  0
 10 12  1  0  0  0  0
 10 13  1  0  0  0  0
 13 14  1  0  0  0  0
 13 15  1  0  0  0  0
 13 16  1  0  0  0  0
 16 17  1  0  0  0  0
 16 18  1  0  0  0  0
 16 19  1  0  0  0  0
 19 20  1  0  0  0  0
 19 21  1  0  0  0  0
 19 22  1  0  0  0  0
  1 23  1  0  0  0  0
 23 24  1  0  0  0  0
 23 25  1  0  0  0  0
 23 26  1  0  0  0  0
M  END
> <VM2 Rank>
9

> <Conf_Id>
1256

> <Probability>
2.23

> <Sum Probability>
31.67

> <Delta G>
0.676

> <G>
76.142

> <E>
43.870

> <-TS>
32.272

> <U+W>
22.408

> <U>
71.035

> <W>
-48.627

> <W(PB)>
-50.936

> <W(SA)>
2.309

> <Valence>
2.223

> <Coulomb>
68.516

> <VdW>
0.296

> <VdW6>
-5.881

> <VdW12>
6.178

> <Bond>
0.162

> <Angle>
0.596

> <Pdih>
1.465

> <Idih>
0.000

> <Tether>
0.000

$$$$
VeraChem MOL file


 26 25  0  0  0  0  0  0  0  0999 V2000     
   20.0191   18.7529   26.4167 N   0  3  0  0  0  0  0  0  0  0  0  0
   21.0214   18.5798   26.5907 H   0  0  0  0  0  0  0  0  0  0  0  0
   19.5733   17.8224   26.4311 H   0  0  0  0  0  0  0  0  0  0  0  0
   19.8284   19.4033   25.0612 C   0  0  0  0  0  0  0  0  0  0  0  0
   20.3205   20.3788   25.0852 H   0  0  0  0  0  0  0  0  0  0  0  0
   18.7572   19.5615   24.9129 H   0  0  0  0  0  0  0  0  0  0  0  0
   20.3941   18.5663   23.8995 C   0  0  0  0  0  0  0  0  0  0  0  0
   21.4668   18.3956   24.0614 H   0  0  0  0  0  0  0  0  0  0  0  0
   19.9086   17.5812   23.8888 H   0  0  0  0  0  0  0  0  0  0  0  0
   20.1774   19.2672   22.5399 C   0  0  0  0  0  0  0  0  0  0  0  0
   20.6629   20.2530   22.5548 H   0  0  0  0  0  0  0  0  0  0  0  0
   19.1033   19.4429   22.3943 H   0  0  0  0  0  0  0  0  0  0  0  0
   20.7396   18.4309   21.3651 C   0  0  0  0  0  0  0  0  0  0  0  0
   21.7968   18.2032   21.5600 H   0  0  0  0  0  0  0  0  0  0  0  0
   20.2197   17.4642   21.3157 H   0  0  0  0  0  0  0  0  0  0  0  0
   20.6358   19.1437   19.9948 C   0  0  0  0  0  0  0  0  0  0  0  0
   21.1493   18.5321   19.2396 H   0  0  0  0  0  0  0  0  0  0  0  0
   21.1740   20.1011   20.0319 H   0  0  0  0  0  0  0  0  0  0  0  0
   19.1796   19.3834   19.5348 C   0  0  0  0  0  0  0  0  0  0  0  0
   19.1614   19.8052   18.5216 H   0  0  0  0  0  0  0  0  0  0  0  0
   18.6590   20.0888   20.1942 H   0  0  0  0  0  0  0  0  0  0  0  0
   18.6111   18.4445   19.5173 H   0  0  0  0  0  0  0  0  0  0  0  0
   19.4340   19.6423   27.5050 C   0  0  0  0  0  0  0  0  0  0  0  0
   19.9434   20.6084   27.4919 H   0  0  0  0  0  0  0  0  0  0  0  0
   18.3672   19.7839   27.3182 H   0  0  0  0  0  0  0  0  0  0  0  0
   19.5780   19.1625   28.4757 H   0  0  0  0  0  0  0  0  0  0  0  0
  1  2  1  0  0  0  0
  1  3  1  0  0  0  0
  1  4  1  0  0  0  0
  4  5  1  0  0  0  0
  4  6  1  0  0  0  0
  4  7  1  0  0  0  0
  7  8  1  0  0  0  0
  7  9  1  0  0  0  0
  7 10  1  0  0  0  0
 10 11  1  0  0  0  0
 10 12  1  0  0  0  0
 10 13  1  0  0  0  0
 13 14  1  0  0  0  0
 13 15  1  0  0  0  0
 13 16  1  0  0  0  0
 16 17  1  0  0  0  0
 16 18  1  0  0  0  0
 16 19  1  0  0  0  0
 19 20  1  0  0  0  0
 19 21  1  0  0  0  0
 19 22  1  0  0  0  0
  1 23  1  0  0  0  0
 23 24  1  0  0  0  0
 23 25  1  0  0  0  0
 23 26  1  0  0  0  0
M  END
> <VM2 Rank>
10

> <Conf_Id>
760

> <Probability>
2.19

> <Sum Probability>
33.86

> <Delta G>
0.686

> <G>
76.152

> <E>
43.880

> <-TS>
32.272

> <U+W>
22.418

> <U>
71.035

> <W>
-48.617

> <W(PB)>
-50.942

> <W(SA)>
2.325

> <Valence>
2.223

> <Coulomb>
68.516

> <VdW>
0.297

> <VdW6>
-5.882

> <VdW12>
6.178

> <Bond>
0.162

> <Angle>
0.596

> <Pdih>
1.465

> <Idih>
0.000

> <Tether>
0.000

$$$$
VeraChem MOL file


 26 25  0  0  0  0  0  0  0  0999 V2000     
   19.4943   18.7719   26.3217 N   0  3  0  0  0  0  0  0  0  0  0  0
   18.8971   18.0181   26.6973 H   0  0  0  0  0  0  0  0  0  0  0  0
   19.1443   19.6349   26.7657 H   0  0  0  0  0  0  0  0  0  0  0  0
   19.3256   18.8511   24.8137 C   0  0  0  0  0  0  0  0  0  0  0  0
   18.2524   18.8636   24.6068 H   0  0  0  0  0  0  0  0  0  0  0  0
   19.7440   17.9387   24.3824 H   0  0  0  0  0  0  0  0  0  0  0  0
   19.9760   20.0897   24.1614 C   0  0  0  0  0  0  0  0  0  0  0  0
   19.5967   20.9946   24.6541 H   0  0  0  0  0  0  0  0  0  0  0  0
   21.0612   20.0741   24.3255 H   0  0  0  0  0  0  0  0  0  0  0  0
   19.6868   20.1845   22.6447 C   0  0  0  0  0  0  0  0  0  0  0  0
   20.0977   21.1307   22.2661 H   0  0  0  0  0  0  0  0  0  0  0  0
   18.6011   20.2301   22.4808 H   0  0  0  0  0  0  0  0  0  0  0  0
   20.2883   19.0088   21.8374 C   0  0  0  0  0  0  0  0  0  0  0  0
   21.3685   18.9463   22.0293 H   0  0  0  0  0  0  0  0  0  0  0  0
   19.8503   18.0595   22.1734 H   0  0  0  0  0  0  0  0  0  0  0  0
   20.0445   19.1700   20.3203 C   0  0  0  0  0  0  0  0  0  0  0  0
   20.4866   20.1137   19.9710 H   0  0  0  0  0  0  0  0  0  0  0  0
   18.9652   19.2337   20.1226 H   0  0  0  0  0  0  0  0  0  0  0  0
   20.6437   17.9962   19.5164 C   0  0  0  0  0  0  0  0  0  0  0  0
   21.7290   17.9275   19.6672 H   0  0  0  0  0  0  0  0  0  0  0  0
   20.4609   18.1288   18.4421 H   0  0  0  0  0  0  0  0  0  0  0  0
   20.1954   17.0408   19.8187 H   0  0  0  0  0  0  0  0  0  0  0  0
   20.9488   18.5178   26.7014 C   0  0  0  0  0  0  0  0  0  0  0  0
   21.2849   17.5900   26.2334 H   0  0  0  0  0  0  0  0  0  0  0  0
   21.5637   19.3513   26.3563 H   0  0  0  0  0  0  0  0  0  0  0  0
   21.0243   18.4313   27.7876 H   0  0  0  0  0  0  0  0  0  0  0  0
  1  2  1  0  0  0  0
  1  3  1  0  0  0  0
  1  4  1  0  0  0  0
  4  5  1  0  0  0  0
  4  6  1  0  0  0  0
  4  7  1  0  0  0  0
  7  8  1  0  0  0  0
  7  9  1  0  0  0  0
  7 10  1  0  0  0  0
 10 11  1  0  0  0  0
 10 12  1  0  0  0  0
 10 13  1  0  0  0  0
 13 14  1  0  0  0  0
 13 15  1  0  0  0  0
 13 16  1  0  0  0  0
 16 17  1  0  0  0  0
 16 18  1  0  0  0  0
 16 19  1  0  0  0  0
 19 20  1  0  0  0  0
 19 21  1  0  0  0  0
 19 22  1  0  0  0  0
  1 23  1  0  0  0  0
 23 24  1  0  0  0  0
 23 25  1  0  0  0  0
 23 26  1  0  0  0  0
M  END
> <VM2 Rank>
11

> <Conf_Id>
1096

> <Probability>
2.00

> <Sum Probability>
35.85

> <Delta G>
0.741

> <G>
76.207

> <E>
43.781

> <-TS>
32.426

> <U+W>
22.319

> <U>
71.511

> <W>
-49.193

> <W(PB)>
-51.484

> <W(SA)>
2.291

> <Valence>
2.291

> <Coulomb>
68.784

> <VdW>
0.437

> <VdW6>
-6.615

> <VdW12>
7.052

> <Bond>
0.185

> <Angle>
0.586

> <Pdih>
1.520

> <Idih>
0.000

> <Tether>
0.000

$$$$
VeraChem MOL file


 26 25  0  0  0  0  0  0  0  0999 V2000     
   20.4445   18.8714   26.3553 N   0  3  0  0  0  0  0  0  0  0  0  0
   20.5764   19.7848   26.8165 H   0  0  0  0  0  0  0  0  0  0  0  0
   21.1569   18.2547   26.7774 H   0  0  0  0  0  0  0  0  0  0  0  0
   20.6985   18.9949   24.8624 C   0  0  0  0  0  0  0  0  0  0  0  0
   20.5090   18.0188   24.4095 H   0  0  0  0  0  0  0  0  0  0  0  0
   21.7576   19.2305   24.7311 H   0  0  0  0  0  0  0  0  0  0  0  0
   19.8533   20.0769   24.1570 C   0  0  0  0  0  0  0  0  0  0  0  0
   18.7860   19.8362   24.2450 H   0  0  0  0  0  0  0  0  0  0  0  0
   20.0020   21.0371   24.6684 H   0  0  0  0  0  0  0  0  0  0  0  0
   20.2221   20.2405   22.6637 C   0  0  0  0  0  0  0  0  0  0  0  0
   21.2837   20.5107   22.5757 H   0  0  0  0  0  0  0  0  0  0  0  0
   19.6520   21.0841   22.2503 H   0  0  0  0  0  0  0  0  0  0  0  0
   19.9344   18.9719   21.8249 C   0  0  0  0  0  0  0  0  0  0  0  0
   20.5346   18.1311   22.1977 H   0  0  0  0  0  0  0  0  0  0  0  0
   18.8798   18.6861   21.9413 H   0  0  0  0  0  0  0  0  0  0  0  0
   20.2451   19.1909   20.3274 C   0  0  0  0  0  0  0  0  0  0  0  0
   21.2991   19.4775   20.2052 H   0  0  0  0  0  0  0  0  0  0  0  0
   19.6432   20.0254   19.9412 H   0  0  0  0  0  0  0  0  0  0  0  0
   19.9590   17.9245   19.4923 C   0  0  0  0  0  0  0  0  0  0  0  0
   20.1851   18.0998   18.4325 H   0  0  0  0  0  0  0  0  0  0  0  0
   18.9035   17.6321   19.5674 H   0  0  0  0  0  0  0  0  0  0  0  0
   20.5726   17.0801   19.8322 H   0  0  0  0  0  0  0  0  0  0  0  0
   19.0511   18.3191   26.6340 C   0  0  0  0  0  0  0  0  0  0  0  0
   18.3027   19.0098   26.2405 H   0  0  0  0  0  0  0  0  0  0  0  0
   18.9478   17.3453   26.1504 H   0  0  0  0  0  0  0  0  0  0  0  0
   18.9191   18.2107   27.7128 H   0  0  0  0  0  0  0  0  0  0  0  0
  1  2  1  0  0  0  0
  1  3  1  0  0  0  0
  1  4  1  0  0  0  0
  4  5  1  0  0  0  0
  4  6  1  0  0  0  0
  4  7  1  0  0  0  0
  7  8  1  0  0  0  0
  7  9  1  0  0  0  0
  7 10  1  0  0  0  0
 10 11  1  0  0  0  0
 10 12  1  0  0  0  0
 10 13  1  0  0  0  0
 13 14  1  0  0  0  0
 13 15  1  0  0  0  0
 13 16  1  0  0  0  0
 16 17  1  0  0  0  0
 16 18  1  0  0  0  0
 16 19  1  0  0  0  0
 19 20  1  0  0  0  0
 19 21  1  0  0  0  0
 19 22  1  0  0  0  0
  1 23  1  0  0  0  0
 23 24  1  0  0  0  0
 23 25  1  0  0  0  0
 23 26  1  0  0  0  0
M  END
> <VM2 Rank>
12

> <Conf_Id>
813

> <Probability>
1.99

> <Sum Probability>
37.85

> <Delta G>
0.742

> <G>
76.208

> <E>
43.782

> <-TS>
32.426

> <U+W>
22.320

> <U>
71.511

> <W>
-49.191

> <W(PB)>
-51.480

> <W(SA)>
2.288

> <Valence>
2.291

> <Coulomb>
68.784

> <VdW>
0.437

> <VdW6>
-6.615

> <VdW12>
7.052

> <Bond>
0.185

> <Angle>
0.586

> <Pdih>
1.520

> <Idih>
0.000

> <Tether>
0.000

$$$$
VeraChem MOL file


 26 25  0  0  0  0  0  0  0  0999 V2000     
   19.5537   18.5507   26.1837 N   0  3  0  0  0  0  0  0  0  0  0  0
   20.0711   17.6582   26.2068 H   0  0  0  0  0  0  0  0  0  0  0  0
   18.5859   18.3005   25.9276 H   0  0  0  0  0  0  0  0  0  0  0  0
   20.1492   19.4735   25.1393 C   0  0  0  0  0  0  0  0  0  0  0  0
   21.1728   19.7070   25.4431 H   0  0  0  0  0  0  0  0  0  0  0  0
   19.5698   20.4002   25.1410 H   0  0  0  0  0  0  0  0  0  0  0  0
   20.1543   18.8685   23.7237 C   0  0  0  0  0  0  0  0  0  0  0  0
   20.7238   17.9297   23.7305 H   0  0  0  0  0  0  0  0  0  0  0  0
   19.1243   18.6211   23.4377 H   0  0  0  0  0  0  0  0  0  0  0  0
   20.7730   19.8457   22.6963 C   0  0  0  0  0  0  0  0  0  0  0  0
   21.7717   20.1440   23.0447 H   0  0  0  0  0  0  0  0  0  0  0  0
   20.1745   20.7664   22.6535 H   0  0  0  0  0  0  0  0  0  0  0  0
   20.9077   19.2476   21.2741 C   0  0  0  0  0  0  0  0  0  0  0  0
   21.4589   19.9621   20.6470 H   0  0  0  0  0  0  0  0  0  0  0  0
   21.5210   18.3368   21.3139 H   0  0  0  0  0  0  0  0  0  0  0  0
   19.5497   18.9333   20.6023 C   0  0  0  0  0  0  0  0  0  0  0  0
   18.9157   19.8310   20.6087 H   0  0  0  0  0  0  0  0  0  0  0  0
   19.0145   18.1612   21.1707 H   0  0  0  0  0  0  0  0  0  0  0  0
   19.7327   18.4472   19.1486 C   0  0  0  0  0  0  0  0  0  0  0  0
   20.3386   17.5325   19.1116 H   0  0  0  0  0  0  0  0  0  0  0  0
   20.2290   19.2109   18.5357 H   0  0  0  0  0  0  0  0  0  0  0  0
   18.7609   18.2262   18.6884 H   0  0  0  0  0  0  0  0  0  0  0  0
   19.5877   19.2232   27.5491 C   0  0  0  0  0  0  0  0  0  0  0  0
   19.0069   20.1474   27.5089 H   0  0  0  0  0  0  0  0  0  0  0  0
   19.1562   18.5483   28.2917 H   0  0  0  0  0  0  0  0  0  0  0  0
   20.6235   19.4482   27.8129 H   0  0  0  0  0  0  0  0  0  0  0  0
  1  2  1  0  0  0  0
  1  3  1  0  0  0  0
  1  4  1  0  0  0  0
  4  5  1  0  0  0  0
  4  6  1  0  0  0  0
  4  7  1  0  0  0  0
  7  8  1  0  0  0  0
  7  9  1  0  0  0  0
  7 10  1  0  0  0  0
 10 11  1  0  0  0  0
 10 12  1  0  0  0  0
 10 13  1  0  0  0  0
 13 14  1  0  0  0  0
 13 15  1  0  0  0  0
 13 16  1  0  0  0  0
 16 17  1  0  0  0  0
 16 18  1  0  0  0  0
 16 19  1  0  0  0  0
 19 20  1  0  0  0  0
 19 21  1  0  0  0  0
 19 22  1  0  0  0  0
  1 23  1  0  0  0  0
 23 24  1  0  0  0  0
 23 25  1  0  0  0  0
 23 26  1  0  0  0  0
M  END
> <VM2 Rank>
13

> <Conf_Id>
975

> <Probability>
1.94

> <Sum Probability>
39.78

> <Delta G>
0.759

> <G>
76.225

> <E>
43.964

> <-TS>
32.261

> <U+W>
22.502

> <U>
71.348

> <W>
-48.846

> <W(PB)>
-51.157

> <W(SA)>
2.311

> <Valence>
2.262

> <Coulomb>
68.807

> <VdW>
0.280

> <VdW6>
-5.916

> <VdW12>
6.195

> <Bond>
0.164

> <Angle>
0.622

> <Pdih>
1.475

> <Idih>
0.000

> <Tether>
0.000

$$$$
VeraChem MOL file


 26 25  0  0  0  0  0  0  0  0999 V2000     
   20.4400   18.6415   26.2151 N   0  3  0  0  0  0  0  0  0  0  0  0
   21.4539   18.5940   26.0291 H   0  0  0  0  0  0  0  0  0  0  0  0
   20.1134   17.6626   26.2085 H   0  0  0  0  0  0  0  0  0  0  0  0
   19.7446   19.4321   25.1250 C   0  0  0  0  0  0  0  0  0  0  0  0
   20.1230   20.4568   25.1606 H   0  0  0  0  0  0  0  0  0  0  0  0
   18.6762   19.4514   25.3547 H   0  0  0  0  0  0  0  0  0  0  0  0
   19.9612   18.8487   23.7169 C   0  0  0  0  0  0  0  0  0  0  0  0
   21.0374   18.8169   23.5055 H   0  0  0  0  0  0  0  0  0  0  0  0
   19.5944   17.8140   23.6905 H   0  0  0  0  0  0  0  0  0  0  0  0
   19.2310   19.6878   22.6417 C   0  0  0  0  0  0  0  0  0  0  0  0
   19.6322   20.7108   22.6343 H   0  0  0  0  0  0  0  0  0  0  0  0
   18.1707   19.7751   22.9171 H   0  0  0  0  0  0  0  0  0  0  0  0
   19.3201   19.0850   21.2178 C   0  0  0  0  0  0  0  0  0  0  0  0
   18.9027   18.0686   21.2211 H   0  0  0  0  0  0  0  0  0  0  0  0
   18.6810   19.6776   20.5486 H   0  0  0  0  0  0  0  0  0  0  0  0
   20.7572   19.0570   20.6450 C   0  0  0  0  0  0  0  0  0  0  0  0
   21.3965   18.4052   21.2551 H   0  0  0  0  0  0  0  0  0  0  0  0
   21.1943   20.0644   20.6894 H   0  0  0  0  0  0  0  0  0  0  0  0
   20.7787   18.5544   19.1856 C   0  0  0  0  0  0  0  0  0  0  0  0
   21.8049   18.5380   18.7962 H   0  0  0  0  0  0  0  0  0  0  0  0
   20.1822   19.2062   18.5341 H   0  0  0  0  0  0  0  0  0  0  0  0
   20.3747   17.5362   19.1129 H   0  0  0  0  0  0  0  0  0  0  0  0
   20.1752   19.2835   27.5699 C   0  0  0  0  0  0  0  0  0  0  0  0
   19.0995   19.2925   27.7590 H   0  0  0  0  0  0  0  0  0  0  0  0
   20.6813   18.7046   28.3457 H   0  0  0  0  0  0  0  0  0  0  0  0
   20.5585   20.3063   27.5637 H   0  0  0  0  0  0  0  0  0  0  0  0
  1  2  1  0  0  0  0
  1  3  1  0  0  0  0
  1  4  1  0  0  0  0
  4  5  1  0  0  0  0
  4  6  1  0  0  0  0
  4  7  1  0  0  0  0
  7  8  1  0  0  0  0
  7  9  1  0  0  0  0
  7 10  1  0  0  0  0
 10 11  1  0  0  0  0
 10 12  1  0  0  0  0
 10 13  1  0  0  0  0
 13 14  1  0  0  0  0
 13 15  1  0  0  0  0
 13 16  1  0  0  0  0
 16 17  1  0  0  0  0
 16 18  1  0  0  0  0
 16 19  1  0  0  0  0
 19 20  1  0  0  0  0
 19 21  1  0  0  0  0
 19 22  1  0  0  0  0
  1 23  1  0  0  0  0
 23 24  1  0  0  0  0
 23 25  1  0  0  0  0
 23 26  1  0  0  0  0
M  END
> <VM2 Rank>
14

> <Conf_Id>
489

> <Probability>
1.91

> <Sum Probability>
41.70

> <Delta G>
0.766

> <G>
76.232

> <E>
43.972

> <-TS>
32.261

> <U+W>
22.510

> <U>
71.348

> <W>
-48.839

> <W(PB)>
-51.152

> <W(SA)>
2.313

> <Valence>
2.262

> <Coulomb>
68.807

> <VdW>
0.280

> <VdW6>
-5.915

> <VdW12>
6.195

> <Bond>
0.164

> <Angle>
0.622

> <Pdih>
1.475

> <Idih>
0.000

> <Tether>
0.000

$$$$
VeraChem MOL file


 26 25  0  0  0  0  0  0  0  0999 V2000     
   19.6329   18.3062   26.1789 N   0  3  0  0  0  0  0  0  0  0  0  0
   20.3998   17.6169   26.2118 H   0  0  0  0  0  0  0  0  0  0  0  0
   18.7857   17.7744   26.4347 H   0  0  0  0  0  0  0  0  0  0  0  0
   19.4813   18.8569   24.7707 C   0  0  0  0  0  0  0  0  0  0  0  0
   18.6944   19.6150   24.7886 H   0  0  0  0  0  0  0  0  0  0  0  0
   19.1442   18.0326   24.1379 H   0  0  0  0  0  0  0  0  0  0  0  0
   20.7734   19.4554   24.1743 C   0  0  0  0  0  0  0  0  0  0  0  0
   21.1173   20.2846   24.8057 H   0  0  0  0  0  0  0  0  0  0  0  0
   21.5698   18.6996   24.1876 H   0  0  0  0  0  0  0  0  0  0  0  0
   20.5783   19.9794   22.7317 C   0  0  0  0  0  0  0  0  0  0  0  0
   21.5051   20.4739   22.4090 H   0  0  0  0  0  0  0  0  0  0  0  0
   19.7965   20.7516   22.7253 H   0  0  0  0  0  0  0  0  0  0  0  0
   20.2192   18.8635   21.7210 C   0  0  0  0  0  0  0  0  0  0  0  0
   20.9847   18.0759   21.7559 H   0  0  0  0  0  0  0  0  0  0  0  0
   19.2668   18.3943   22.0016 H   0  0  0  0  0  0  0  0  0  0  0  0
   20.1087   19.4086   20.2795 C   0  0  0  0  0  0  0  0  0  0  0  0
   21.0598   19.8734   19.9841 H   0  0  0  0  0  0  0  0  0  0  0  0
   19.3446   20.1976   20.2388 H   0  0  0  0  0  0  0  0  0  0  0  0
   19.7491   18.2953   19.2724 C   0  0  0  0  0  0  0  0  0  0  0  0
   18.7844   17.8342   19.5211 H   0  0  0  0  0  0  0  0  0  0  0  0
   20.5132   17.5070   19.2657 H   0  0  0  0  0  0  0  0  0  0  0  0
   19.6758   18.7016   18.2553 H   0  0  0  0  0  0  0  0  0  0  0  0
   19.8649   19.4248   27.1885 C   0  0  0  0  0  0  0  0  0  0  0  0
   19.0302   20.1277   27.1432 H   0  0  0  0  0  0  0  0  0  0  0  0
   19.9300   18.9939   28.1901 H   0  0  0  0  0  0  0  0  0  0  0  0
   20.7973   19.9403   26.9499 H   0  0  0  0  0  0  0  0  0  0  0  0
  1  2  1  0  0  0  0
  1  3  1  0  0  0  0
  1  4  1  0  0  0  0
  4  5  1  0  0  0  0
  4  6  1  0  0  0  0
  4  7  1  0  0  0  0
  7  8  1  0  0  0  0
  7  9  1  0  0  0  0
  7 10  1  0  0  0  0
 10 11  1  0  0  0  0
 10 12  1  0  0  0  0
 10 13  1  0  0  0  0
 13 14  1  0  0  0  0
 13 15  1  0  0  0  0
 13 16  1  0  0  0  0
 16 17  1  0  0  0  0
 16 18  1  0  0  0  0
 16 19  1  0  0  0  0
 19 20  1  0  0  0  0
 19 21  1  0  0  0  0
 19 22  1  0  0  0  0
  1 23  1  0  0  0  0
 23 24  1  0  0  0  0
 23 25  1  0  0  0  0
 23 26  1  0  0  0  0
M  END
> <VM2 Rank>
15

> <Conf_Id>
1280

> <Probability>
1.79

> <Sum Probability>
43.48

> <Delta G>
0.807

> <G>
76.273

> <E>
43.845

> <-TS>
32.428

> <U+W>
22.383

> <U>
71.628

> <W>
-49.244

> <W(PB)>
-51.547

> <W(SA)>
2.302

> <Valence>
2.314

> <Coulomb>
68.823

> <VdW>
0.491

> <VdW6>
-6.572

> <VdW12>
7.063

> <Bond>
0.188

> <Angle>
0.606

> <Pdih>
1.519

> <Idih>
0.000

> <Tether>
0.000

$$$$
VeraChem MOL file


 26 25  0  0  0  0  0  0  0  0999 V2000     
   20.4124   18.3859   26.2064 N   0  3  0  0  0  0  0  0  0  0  0  0
   21.3297   18.0348   26.5247 H   0  0  0  0  0  0  0  0  0  0  0  0
   19.8005   17.5554   26.1905 H   0  0  0  0  0  0  0  0  0  0  0  0
   20.5477   18.9661   24.8085 C   0  0  0  0  0  0  0  0  0  0  0  0
   21.0881   18.2317   24.2067 H   0  0  0  0  0  0  0  0  0  0  0  0
   21.1617   19.8676   24.8760 H   0  0  0  0  0  0  0  0  0  0  0  0
   19.2062   19.2952   24.1188 C   0  0  0  0  0  0  0  0  0  0  0  0
   18.5802   18.3938   24.0818 H   0  0  0  0  0  0  0  0  0  0  0  0
   18.6584   20.0331   24.7187 H   0  0  0  0  0  0  0  0  0  0  0  0
   19.3918   19.8581   22.6897 C   0  0  0  0  0  0  0  0  0  0  0  0
   19.9999   20.7724   22.7324 H   0  0  0  0  0  0  0  0  0  0  0  0
   18.4091   20.1572   22.2993 H   0  0  0  0  0  0  0  0  0  0  0  0
   20.0390   18.8450   21.7146 C   0  0  0  0  0  0  0  0  0  0  0  0
   21.0445   18.5760   22.0646 H   0  0  0  0  0  0  0  0  0  0  0  0
   19.4479   17.9188   21.7015 H   0  0  0  0  0  0  0  0  0  0  0  0
   20.1377   19.4115   20.2806 C   0  0  0  0  0  0  0  0  0  0  0  0
   20.7274   20.3390   20.2878 H   0  0  0  0  0  0  0  0  0  0  0  0
   19.1353   19.6765   19.9158 H   0  0  0  0  0  0  0  0  0  0  0  0
   20.7847   18.4012   19.3092 C   0  0  0  0  0  0  0  0  0  0  0  0
   20.8454   18.8211   18.2968 H   0  0  0  0  0  0  0  0  0  0  0  0
   20.1983   17.4747   19.2547 H   0  0  0  0  0  0  0  0  0  0  0  0
   21.8029   18.1430   19.6281 H   0  0  0  0  0  0  0  0  0  0  0  0
   19.8886   19.4270   27.1893 C   0  0  0  0  0  0  0  0  0  0  0  0
   19.8421   18.9846   28.1869 H   0  0  0  0  0  0  0  0  0  0  0  0
   20.5649   20.2847   27.1977 H   0  0  0  0  0  0  0  0  0  0  0  0
   18.8903   19.7449   26.8824 H   0  0  0  0  0  0  0  0  0  0  0  0
  1  2  1  0  0  0  0
  1  3  1  0  0  0  0
  1  4  1  0  0  0  0
  4  5  1  0  0  0  0
  4  6  1  0  0  0  0
  4  7  1  0  0  0  0
  7  8  1  0  0  0  0
  7  9  1  0  0  0  0
  7 10  1  0  0  0  0
 10 11  1  0  0  0  0
 10 12  1  0  0  0  0
 10 13  1  0  0  0  0
 13 14  1  0  0  0  0
 13 15  1  0  0  0  0
 13 16  1  0  0  0  0
 16 17  1  0  0  0  0
 16 18  1  0  0  0  0
 16 19  1  0  0  0  0
 19 20  1  0  0  0  0
 19 21  1  0  0  0  0
 19 22  1  0  0  0  0
  1 23  1  0  0  0  0
 23 24  1  0  0  0  0
 23 25  1  0  0  0  0
 23 26  1  0  0  0  0
M  END
> <VM2 Rank>
16

> <Conf_Id>
273

> <Probability>
1.68

> <Sum Probability>
45.17

> <Delta G>
0.843

> <G>
76.309

> <E>
43.882

> <-TS>
32.428

> <U+W>
22.420

> <U>
71.628

> <W>
-49.208

> <W(PB)>
-51.516

> <W(SA)>
2.308

> <Valence>
2.314

> <Coulomb>
68.823

> <VdW>
0.491

> <VdW6>
-6.572

> <VdW12>
7.063

> <Bond>
0.188

> <Angle>
0.606

> <Pdih>
1.519

> <Idih>
0.000

> <Tether>
0.000

$$$$
VeraChem MOL file


 26 25  0  0  0  0  0  0  0  0999 V2000     
   19.5679   18.5759   26.4542 N   0  3  0  0  0  0  0  0  0  0  0  0
   20.0455   17.6616   26.4747 H   0  0  0  0  0  0  0  0  0  0  0  0
   18.7209   18.4467   27.0302 H   0  0  0  0  0  0  0  0  0  0  0  0
   19.1663   18.9272   25.0314 C   0  0  0  0  0  0  0  0  0  0  0  0
   18.7014   19.9161   25.0472 H   0  0  0  0  0  0  0  0  0  0  0  0
   18.4103   18.2021   24.7193 H   0  0  0  0  0  0  0  0  0  0  0  0
   20.3267   18.9093   24.0156 C   0  0  0  0  0  0  0  0  0  0  0  0
   21.0798   19.6556   24.2997 H   0  0  0  0  0  0  0  0  0  0  0  0
   20.8190   17.9282   24.0423 H   0  0  0  0  0  0  0  0  0  0  0  0
   19.8265   19.2009   22.5834 C   0  0  0  0  0  0  0  0  0  0  0  0
   19.3321   20.1820   22.5612 H   0  0  0  0  0  0  0  0  0  0  0  0
   19.0682   18.4553   22.3096 H   0  0  0  0  0  0  0  0  0  0  0  0
   20.9827   19.1803   21.5545 C   0  0  0  0  0  0  0  0  0  0  0  0
   21.7652   19.8799   21.8797 H   0  0  0  0  0  0  0  0  0  0  0  0
   21.4466   18.1844   21.5377 H   0  0  0  0  0  0  0  0  0  0  0  0
   20.5416   19.5688   20.1224 C   0  0  0  0  0  0  0  0  0  0  0  0
   21.4339   19.6326   19.4839 H   0  0  0  0  0  0  0  0  0  0  0  0
   20.0973   20.5740   20.1299 H   0  0  0  0  0  0  0  0  0  0  0  0
   19.5486   18.5662   19.4913 C   0  0  0  0  0  0  0  0  0  0  0  0
   19.9576   17.5475   19.4983 H   0  0  0  0  0  0  0  0  0  0  0  0
   19.3407   18.8367   18.4480 H   0  0  0  0  0  0  0  0  0  0  0  0
   18.5907   18.5562   20.0257 H   0  0  0  0  0  0  0  0  0  0  0  0
   20.4477   19.6613   27.0643 C   0  0  0  0  0  0  0  0  0  0  0  0
   20.6841   19.3915   28.0960 H   0  0  0  0  0  0  0  0  0  0  0  0
   21.3705   19.7462   26.4869 H   0  0  0  0  0  0  0  0  0  0  0  0
   19.9098   20.6116   27.0458 H   0  0  0  0  0  0  0  0  0  0  0  0
  1  2  1  0  0  0  0
  1  3  1  0  0  0  0
  1  4  1  0  0  0  0
  4  5  1  0  0  0  0
  4  6  1  0  0  0  0
  4  7  1  0  0  0  0
  7  8  1  0  0  0  0
  7  9  1  0  0  0  0
  7 10  1  0  0  0  0
 10 11  1  0  0  0  0
 10 12  1  0  0  0  0
 10 13  1  0  0  0  0
 13 14  1  0  0  0  0
 13 15  1  0  0  0  0
 13 16  1  0  0  0  0
 16 17  1  0  0  0  0
 16 18  1  0  0  0  0
 16 19  1  0  0  0  0
 19 20  1  0  0  0  0
 19 21  1  0  0  0  0
 19 22  1  0  0  0  0
  1 23  1  0  0  0  0
 23 24  1  0  0  0  0
 23 25  1  0  0  0  0
 23 26  1  0  0  0  0
M  END
> <VM2 Rank>
17

> <Conf_Id>
728

> <Probability>
1.52

> <Sum Probability>
46.69

> <Delta G>
0.903

> <G>
76.369

> <E>
43.926

> <-TS>
32.443

> <U+W>
22.464

> <U>
71.429

> <W>
-48.965

> <W(PB)>
-51.237

> <W(SA)>
2.272

> <Valence>
2.501

> <Coulomb>
68.364

> <VdW>
0.564

> <VdW6>
-6.585

> <VdW12>
7.150

> <Bond>
0.197

> <Angle>
0.717

> <Pdih>
1.587

> <Idih>
0.000

> <Tether>
0.000

$$$$
VeraChem MOL file


 26 25  0  0  0  0  0  0  0  0999 V2000     
   19.4775   19.1691   26.4941 N   0  3  0  0  0  0  0  0  0  0  0  0
   19.0855   18.2215   26.6081 H   0  0  0  0  0  0  0  0  0  0  0  0
   18.9001   19.7709   27.1027 H   0  0  0  0  0  0  0  0  0  0  0  0
   19.3399   19.6245   25.0509 C   0  0  0  0  0  0  0  0  0  0  0  0
   19.8009   20.6116   24.9640 H   0  0  0  0  0  0  0  0  0  0  0  0
   18.2718   19.7297   24.8443 H   0  0  0  0  0  0  0  0  0  0  0  0
   19.9581   18.6638   24.0147 C   0  0  0  0  0  0  0  0  0  0  0  0
   21.0377   18.5725   24.1906 H   0  0  0  0  0  0  0  0  0  0  0  0
   19.5248   17.6630   24.1428 H   0  0  0  0  0  0  0  0  0  0  0  0
   19.7119   19.1571   22.5716 C   0  0  0  0  0  0  0  0  0  0  0  0
   20.1383   20.1627   22.4592 H   0  0  0  0  0  0  0  0  0  0  0  0
   18.6311   19.2471   22.3948 H   0  0  0  0  0  0  0  0  0  0  0  0
   20.3302   18.2011   21.5231 C   0  0  0  0  0  0  0  0  0  0  0  0
   21.4185   18.1489   21.6648 H   0  0  0  0  0  0  0  0  0  0  0  0
   19.9477   17.1852   21.6939 H   0  0  0  0  0  0  0  0  0  0  0  0
   20.0185   18.6036   20.0611 C   0  0  0  0  0  0  0  0  0  0  0  0
   18.9307   18.6351   19.9080 H   0  0  0  0  0  0  0  0  0  0  0  0
   20.4001   17.8205   19.3910 H   0  0  0  0  0  0  0  0  0  0  0  0
   20.6408   19.9575   19.6499 C   0  0  0  0  0  0  0  0  0  0  0  0
   21.7252   19.9621   19.8208 H   0  0  0  0  0  0  0  0  0  0  0  0
   20.2004   20.7911   20.2106 H   0  0  0  0  0  0  0  0  0  0  0  0
   20.4689   20.1509   18.5831 H   0  0  0  0  0  0  0  0  0  0  0  0
   20.9312   19.2135   26.9515 C   0  0  0  0  0  0  0  0  0  0  0  0
   21.3124   20.2305   26.8370 H   0  0  0  0  0  0  0  0  0  0  0  0
   20.9845   18.9158   28.0011 H   0  0  0  0  0  0  0  0  0  0  0  0
   21.5227   18.5251   26.3447 H   0  0  0  0  0  0  0  0  0  0  0  0
  1  2  1  0  0  0  0
  1  3  1  0  0  0  0
  1  4  1  0  0  0  0
  4  5  1  0  0  0  0
  4  6  1  0  0  0  0
  4  7  1  0  0  0  0
  7  8  1  0  0  0  0
  7  9  1  0  0  0  0
  7 10  1  0  0  0  0
 10 11  1  0  0  0  0
 10 12  1  0  0  0  0
 10 13  1  0  0  0  0
 13 14  1  0  0  0  0
 13 15  1  0  0  0  0
 13 16  1  0  0  0  0
 16 17  1  0  0  0  0
 16 18  1  0  0  0  0
 16 19  1  0  0  0  0
 19 20  1  0  0  0  0
 19 21  1  0  0  0  0
 19 22  1  0  0  0  0
  1 23  1  0  0  0  0
 23 24  1  0  0  0  0
 23 25  1  0  0  0  0
 23 26  1  0  0  0  0
M  END
> <VM2 Rank>
18

> <Conf_Id>
1074

> <Probability>
1.46

> <Sum Probability>
48.14

> <Delta G>
0.930

> <G>
76.395

> <E>
43.953

> <-TS>
32.443

> <U+W>
22.491

> <U>
71.422

> <W>
-48.931

> <W(PB)>
-51.230

> <W(SA)>
2.299

> <Valence>
2.501

> <Coulomb>
68.359

> <VdW>
0.562

> <VdW6>
-6.587

> <VdW12>
7.149

> <Bond>
0.197

> <Angle>
0.717

> <Pdih>
1.587

> <Idih>
0.000

> <Tether>
0.000

$$$$
VeraChem MOL file


 26 25  0  0  0  0  0  0  0  0999 V2000     
   20.3675   19.2596   26.5257 N   0  3  0  0  0  0  0  0  0  0  0  0
   20.7679   19.9610   27.1689 H   0  0  0  0  0  0  0  0  0  0  0  0
   20.9331   18.4095   26.6737 H   0  0  0  0  0  0  0  0  0  0  0  0
   20.5117   19.7436   25.0924 C   0  0  0  0  0  0  0  0  0  0  0  0
   21.5486   20.0630   24.9605 H   0  0  0  0  0  0  0  0  0  0  0  0
   19.8689   20.6184   24.9663 H   0  0  0  0  0  0  0  0  0  0  0  0
   20.1737   18.6856   24.0224 C   0  0  0  0  0  0  0  0  0  0  0  0
   20.7894   17.7916   24.1876 H   0  0  0  0  0  0  0  0  0  0  0  0
   19.1249   18.3777   24.1228 H   0  0  0  0  0  0  0  0  0  0  0  0
   20.4161   19.2288   22.5966 C   0  0  0  0  0  0  0  0  0  0  0  0
   21.4663   19.5357   22.4953 H   0  0  0  0  0  0  0  0  0  0  0  0
   19.8049   20.1288   22.4474 H   0  0  0  0  0  0  0  0  0  0  0  0
   20.0779   18.1753   21.5141 C   0  0  0  0  0  0  0  0  0  0  0  0
   20.6442   17.2561   21.7184 H   0  0  0  0  0  0  0  0  0  0  0  0
   19.0151   17.9040   21.5798 H   0  0  0  0  0  0  0  0  0  0  0  0
   20.4035   18.6429   20.0747 C   0  0  0  0  0  0  0  0  0  0  0  0
   20.2353   17.8039   19.3851 H   0  0  0  0  0  0  0  0  0  0  0  0
   21.4707   18.8940   19.9978 H   0  0  0  0  0  0  0  0  0  0  0  0
   19.5515   19.8466   19.6114 C   0  0  0  0  0  0  0  0  0  0  0  0
   18.4792   19.6315   19.7062 H   0  0  0  0  0  0  0  0  0  0  0  0
   19.7550   20.0783   18.5580 H   0  0  0  0  0  0  0  0  0  0  0  0
   19.7747   20.7478   20.1956 H   0  0  0  0  0  0  0  0  0  0  0  0
   18.9062   19.0075   26.8796 C   0  0  0  0  0  0  0  0  0  0  0  0
   18.5092   18.2186   26.2378 H   0  0  0  0  0  0  0  0  0  0  0  0
   18.8403   18.6978   27.9250 H   0  0  0  0  0  0  0  0  0  0  0  0
   18.3372   19.9279   26.7314 H   0  0  0  0  0  0  0  0  0  0  0  0
  1  2  1  0  0  0  0
  1  3  1  0  0  0  0
  1  4  1  0  0  0  0
  4  5  1  0  0  0  0
  4  6  1  0  0  0  0
  4  7  1  0  0  0  0
  7  8  1  0  0  0  0
  7  9  1  0  0  0  0
  7 10  1  0  0  0  0
 10 11  1  0  0  0  0
 10 12  1  0  0  0  0
 10 13  1  0  0  0  0
 13 14  1  0  0  0  0
 13 15  1  0  0  0  0
 13 16  1  0  0  0  0
 16 17  1  0  0  0  0
 16 18  1  0  0  0  0
 16 19  1  0  0  0  0
 19 20  1  0  0  0  0
 19 21  1  0  0  0  0
 19 22  1  0  0  0  0
  1 23  1  0  0  0  0
 23 24  1  0  0  0  0
 23 25  1  0  0  0  0
 23 26  1  0  0  0  0
M  END
> <VM2 Rank>
19

> <Conf_Id>
532

> <Probability>
1.45

> <Sum Probability>
49.59

> <Delta G>
0.932

> <G>
76.398

> <E>
43.955

> <-TS>
32.443

> <U+W>
22.493

> <U>
71.422

> <W>
-48.928

> <W(PB)>
-51.221

> <W(SA)>
2.292

> <Valence>
2.501

> <Coulomb>
68.359

> <VdW>
0.562

> <VdW6>
-6.587

> <VdW12>
7.149

> <Bond>
0.197

> <Angle>
0.717

> <Pdih>
1.587

> <Idih>
0.000

> <Tether>
0.000

$$$$
VeraChem MOL file


 26 25  0  0  0  0  0  0  0  0999 V2000     
   20.4018   18.6611   26.4838 N   0  3  0  0  0  0  0  0  0  0  0  0
   21.2151   18.7014   27.1186 H   0  0  0  0  0  0  0  0  0  0  0  0
   20.1184   17.6691   26.4773 H   0  0  0  0  0  0  0  0  0  0  0  0
   20.8229   19.0964   25.0900 C   0  0  0  0  0  0  0  0  0  0  0  0
   21.7296   18.5411   24.8368 H   0  0  0  0  0  0  0  0  0  0  0  0
   21.0763   20.1587   25.1313 H   0  0  0  0  0  0  0  0  0  0  0  0
   19.7640   18.8518   23.9957 C   0  0  0  0  0  0  0  0  0  0  0  0
   19.4792   17.7913   23.9949 H   0  0  0  0  0  0  0  0  0  0  0  0
   18.8577   19.4287   24.2210 H   0  0  0  0  0  0  0  0  0  0  0  0
   20.2941   19.2485   22.5999 C   0  0  0  0  0  0  0  0  0  0  0  0
   21.2045   18.6734   22.3853 H   0  0  0  0  0  0  0  0  0  0  0  0
   20.5804   20.3094   22.6054 H   0  0  0  0  0  0  0  0  0  0  0  0
   19.2408   19.0022   21.4927 C   0  0  0  0  0  0  0  0  0  0  0  0
   18.9900   17.9332   21.4505 H   0  0  0  0  0  0  0  0  0  0  0  0
   18.3122   19.5268   21.7574 H   0  0  0  0  0  0  0  0  0  0  0  0
   19.6935   19.4822   20.0924 C   0  0  0  0  0  0  0  0  0  0  0  0
   19.9239   20.5563   20.1240 H   0  0  0  0  0  0  0  0  0  0  0  0
   18.8538   19.3690   19.3924 H   0  0  0  0  0  0  0  0  0  0  0  0
   20.9104   18.7056   19.5395 C   0  0  0  0  0  0  0  0  0  0  0  0
   21.8107   18.8854   20.1399 H   0  0  0  0  0  0  0  0  0  0  0  0
   21.1320   19.0202   18.5115 H   0  0  0  0  0  0  0  0  0  0  0  0
   20.7162   17.6252   19.5249 H   0  0  0  0  0  0  0  0  0  0  0  0
   19.2806   19.5422   27.0229 C   0  0  0  0  0  0  0  0  0  0  0  0
   18.4024   19.4432   26.3818 H   0  0  0  0  0  0  0  0  0  0  0  0
   19.0319   19.2229   28.0375 H   0  0  0  0  0  0  0  0  0  0  0  0
   19.6156   20.5817   27.0354 H   0  0  0  0  0  0  0  0  0  0  0  0
  1  2  1  0  0  0  0
  1  3  1  0  0  0  0
  1  4  1  0  0  0  0
  4  5  1  0  0  0  0
  4  6  1  0  0  0  0
  4  7  1  0  0  0  0
  7  8  1  0  0  0  0
  7  9  1  0  0  0  0
  7 10  1  0  0  0  0
 10 11  1  0  0  0  0
 10 12  1  0  0  0  0
 10 13  1  0  0  0  0
 13 14  1  0  0  0  0
 13 15  1  0  0  0  0
 13 16  1  0  0  0  0
 16 17  1  0  0  0  0
 16 18  1  0  0  0  0
 16 19  1  0  0  0  0
 19 20  1  0  0  0  0
 19 21  1  0  0  0  0
 19 22  1  0  0  0  0
  1 23  1  0  0  0  0
 23 24  1  0  0  0  0
 23 25  1  0  0  0  0
 23 26  1  0  0  0  0
M  END
> <VM2 Rank>
20

> <Conf_Id>
1075

> <Probability>
1.39

> <Sum Probability>
50.98

> <Delta G>
0.958

> <G>
76.424

> <E>
43.981

> <-TS>
32.443

> <U+W>
22.519

> <U>
71.429

> <W>
-48.910

> <W(PB)>
-51.185

> <W(SA)>
2.274

> <Valence>
2.501

> <Coulomb>
68.364

> <VdW>
0.564

> <VdW6>
-6.586

> <VdW12>
7.150

> <Bond>
0.197

> <Angle>
0.716

> <Pdih>
1.587

> <Idih>
0.000

> <Tether>
0.000

$$$$
VeraChem MOL file


 26 25  0  0  0  0  0  0  0  0999 V2000     
   20.0415   18.7970   26.4300 N   0  3  0  0  0  0  0  0  0  0  0  0
   20.4503   17.8499   26.4152 H   0  0  0  0  0  0  0  0  0  0  0  0
   19.4594   18.8223   27.2823 H   0  0  0  0  0  0  0  0  0  0  0  0
   19.1630   19.0093   25.2083 C   0  0  0  0  0  0  0  0  0  0  0  0
   18.7831   20.0336   25.2407 H   0  0  0  0  0  0  0  0  0  0  0  0
   18.3121   18.3292   25.2987 H   0  0  0  0  0  0  0  0  0  0  0  0
   19.8675   18.7535   23.8604 C   0  0  0  0  0  0  0  0  0  0  0  0
   20.7054   19.4523   23.7505 H   0  0  0  0  0  0  0  0  0  0  0  0
   20.2881   17.7394   23.8567 H   0  0  0  0  0  0  0  0  0  0  0  0
   18.8866   18.9148   22.6750 C   0  0  0  0  0  0  0  0  0  0  0  0
   18.5022   19.9440   22.6498 H   0  0  0  0  0  0  0  0  0  0  0  0
   18.0160   18.2652   22.8417 H   0  0  0  0  0  0  0  0  0  0  0  0
   19.5086   18.5591   21.3019 C   0  0  0  0  0  0  0  0  0  0  0  0
   19.8773   17.5242   21.3213 H   0  0  0  0  0  0  0  0  0  0  0  0
   18.7149   18.5884   20.5426 H   0  0  0  0  0  0  0  0  0  0  0  0
   20.6499   19.5116   20.8724 C   0  0  0  0  0  0  0  0  0  0  0  0
   21.4900   19.4390   21.5757 H   0  0  0  0  0  0  0  0  0  0  0  0
   20.2969   20.5519   20.9036 H   0  0  0  0  0  0  0  0  0  0  0  0
   21.1580   19.1867   19.4514 C   0  0  0  0  0  0  0  0  0  0  0  0
   21.5457   18.1612   19.3957 H   0  0  0  0  0  0  0  0  0  0  0  0
   21.9684   19.8691   19.1640 H   0  0  0  0  0  0  0  0  0  0  0  0
   20.3540   19.2888   18.7109 H   0  0  0  0  0  0  0  0  0  0  0  0
   21.1330   19.8578   26.5176 C   0  0  0  0  0  0  0  0  0  0  0  0
   21.7175   19.6946   27.4258 H   0  0  0  0  0  0  0  0  0  0  0  0
   21.7836   19.7809   25.6441 H   0  0  0  0  0  0  0  0  0  0  0  0
   20.6705   20.8467   26.5497 H   0  0  0  0  0  0  0  0  0  0  0  0
  1  2  1  0  0  0  0
  1  3  1  0  0  0  0
  1  4  1  0  0  0  0
  4  5  1  0  0  0  0
  4  6  1  0  0  0  0
  4  7  1  0  0  0  0
  7  8  1  0  0  0  0
  7  9  1  0  0  0  0
  7 10  1  0  0  0  0
 10 11  1  0  0  0  0
 10 12  1  0  0  0  0
 10 13  1  0  0  0  0
 13 14  1  0  0  0  0
 13 15  1  0  0  0  0
 13 16  1  0  0  0  0
 16 17  1  0  0  0  0
 16 18  1  0  0  0  0
 16 19  1  0  0  0  0
 19 20  1  0  0  0  0
 19 21  1  0  0  0  0
 19 22  1  0  0  0  0
  1 23  1  0  0  0  0
 23 24  1  0  0  0  0
 23 25  1  0  0  0  0
 23 26  1  0  0  0  0
M  END
> <VM2 Rank>
21

> <Conf_Id>
1290

> <Probability>
1.34

> <Sum Probability>
52.32

> <Delta G>
0.978

> <G>
76.444

> <E>
44.013

> <-TS>
32.432

> <U+W>
22.551

> <U>
71.707

> <W>
-49.156

> <W(PB)>
-51.438

> <W(SA)>
2.281

> <Valence>
2.541

> <Coulomb>
68.632

> <VdW>
0.535

> <VdW6>
-6.648

> <VdW12>
7.183

> <Bond>
0.201

> <Angle>
0.741

> <Pdih>
1.599

> <Idih>
0.000

> <Tether>
0.000

$$$$
VeraChem MOL file


 26 25  0  0  0  0  0  0  0  0999 V2000     
   19.3827   18.7669   26.3198 N   0  3  0  0  0  0  0  0  0  0  0  0
   18.8476   17.9260   26.0534 H   0  0  0  0  0  0  0  0  0  0  0  0
   18.8520   19.1834   27.1015 H   0  0  0  0  0  0  0  0  0  0  0  0
   19.4327   19.7475   25.1600 C   0  0  0  0  0  0  0  0  0  0  0  0
   20.0375   20.6037   25.4692 H   0  0  0  0  0  0  0  0  0  0  0  0
   18.4119   20.0982   24.9874 H   0  0  0  0  0  0  0  0  0  0  0  0
   19.9887   19.1592   23.8473 C   0  0  0  0  0  0  0  0  0  0  0  0
   21.0258   18.8327   23.9973 H   0  0  0  0  0  0  0  0  0  0  0  0
   19.4043   18.2700   23.5802 H   0  0  0  0  0  0  0  0  0  0  0  0
   19.9354   20.1964   22.7007 C   0  0  0  0  0  0  0  0  0  0  0  0
   20.4548   21.1099   23.0223 H   0  0  0  0  0  0  0  0  0  0  0  0
   18.8924   20.4860   22.5110 H   0  0  0  0  0  0  0  0  0  0  0  0
   20.5840   19.7004   21.3846 C   0  0  0  0  0  0  0  0  0  0  0  0
   20.6040   20.5354   20.6705 H   0  0  0  0  0  0  0  0  0  0  0  0
   21.6325   19.4292   21.5700 H   0  0  0  0  0  0  0  0  0  0  0  0
   19.8423   18.5055   20.7396 C   0  0  0  0  0  0  0  0  0  0  0  0
   18.7815   18.7576   20.6016 H   0  0  0  0  0  0  0  0  0  0  0  0
   19.8784   17.6325   21.4047 H   0  0  0  0  0  0  0  0  0  0  0  0
   20.4579   18.1217   19.3770 C   0  0  0  0  0  0  0  0  0  0  0  0
   20.4030   18.9585   18.6685 H   0  0  0  0  0  0  0  0  0  0  0  0
   19.9223   17.2714   18.9352 H   0  0  0  0  0  0  0  0  0  0  0  0
   21.5120   17.8354   19.4867 H   0  0  0  0  0  0  0  0  0  0  0  0
   20.7844   18.3923   26.7879 C   0  0  0  0  0  0  0  0  0  0  0  0
   21.3163   17.8939   25.9750 H   0  0  0  0  0  0  0  0  0  0  0  0
   21.3191   19.2986   27.0803 H   0  0  0  0  0  0  0  0  0  0  0  0
   20.7069   17.7178   27.6435 H   0  0  0  0  0  0  0  0  0  0  0  0
  1  2  1  0  0  0  0
  1  3  1  0  0  0  0
  1  4  1  0  0  0  0
  4  5  1  0  0  0  0
  4  6  1  0  0  0  0
  4  7  1  0  0  0  0
  7  8  1  0  0  0  0
  7  9  1  0  0  0  0
  7 10  1  0  0  0  0
 10 11  1  0  0  0  0
 10 12  1  0  0  0  0
 10 13  1  0  0  0  0
 13 14  1  0  0  0  0
 13 15  1  0  0  0  0
 13 16  1  0  0  0  0
 16 17  1  0  0  0  0
 16 18  1  0  0  0  0
 16 19  1  0  0  0  0
 19 20  1  0  0  0  0
 19 21  1  0  0  0  0
 19 22  1  0  0  0  0
  1 23  1  0  0  0  0
 23 24  1  0  0  0  0
 23 25  1  0  0  0  0
 23 26  1  0  0  0  0
M  END
> <VM2 Rank>
22

> <Conf_Id>
1360

> <Probability>
1.32

> <Sum Probability>
53.64

> <Delta G>
0.988

> <G>
76.454

> <E>
44.021

> <-TS>
32.433

> <U+W>
22.559

> <U>
71.722

> <W>
-49.163

> <W(PB)>
-51.479

> <W(SA)>
2.316

> <Valence>
2.539

> <Coulomb>
68.643

> <VdW>
0.540

> <VdW6>
-6.633

> <VdW12>
7.173

> <Bond>
0.200

> <Angle>
0.745

> <Pdih>
1.594

> <Idih>
0.000

> <Tether>
0.000

$$$$
VeraChem MOL file


 26 25  0  0  0  0  0  0  0  0999 V2000     
   20.5545   18.8885   26.3612 N   0  3  0  0  0  0  0  0  0  0  0  0
   20.9326   19.3993   27.1750 H   0  0  0  0  0  0  0  0  0  0  0  0
   21.2680   18.1772   26.1388 H   0  0  0  0  0  0  0  0  0  0  0  0
   20.3855   19.8465   25.1938 C   0  0  0  0  0  0  0  0  0  0  0  0
   21.3221   20.4004   25.0903 H   0  0  0  0  0  0  0  0  0  0  0  0
   19.5978   20.5581   25.4537 H   0  0  0  0  0  0  0  0  0  0  0  0
   20.0551   19.1662   23.8496 C   0  0  0  0  0  0  0  0  0  0  0  0
   20.8265   18.4176   23.6306 H   0  0  0  0  0  0  0  0  0  0  0  0
   19.0991   18.6330   23.9291 H   0  0  0  0  0  0  0  0  0  0  0  0
   19.9748   20.2005   22.7021 C   0  0  0  0  0  0  0  0  0  0  0  0
   20.9469   20.6991   22.5837 H   0  0  0  0  0  0  0  0  0  0  0  0
   19.2580   20.9858   22.9798 H   0  0  0  0  0  0  0  0  0  0  0  0
   19.5354   19.5917   21.3475 C   0  0  0  0  0  0  0  0  0  0  0  0
   18.5544   19.1100   21.4609 H   0  0  0  0  0  0  0  0  0  0  0  0
   19.3948   20.4099   20.6276 H   0  0  0  0  0  0  0  0  0  0  0  0
   20.5496   18.5787   20.7648 C   0  0  0  0  0  0  0  0  0  0  0  0
   20.6466   17.7120   21.4320 H   0  0  0  0  0  0  0  0  0  0  0  0
   21.5432   19.0438   20.6997 H   0  0  0  0  0  0  0  0  0  0  0  0
   20.1227   18.0869   19.3651 C   0  0  0  0  0  0  0  0  0  0  0  0
   19.1446   17.5899   19.4028 H   0  0  0  0  0  0  0  0  0  0  0  0
   20.8508   17.3676   18.9682 H   0  0  0  0  0  0  0  0  0  0  0  0
   20.0546   18.9224   18.6562 H   0  0  0  0  0  0  0  0  0  0  0  0
   19.2303   18.2309   26.7329 C   0  0  0  0  0  0  0  0  0  0  0  0
   18.8701   17.6399   25.8885 H   0  0  0  0  0  0  0  0  0  0  0  0
   19.3846   17.5804   27.5967 H   0  0  0  0  0  0  0  0  0  0  0  0
   18.5019   19.0061   26.9807 H   0  0  0  0  0  0  0  0  0  0  0  0
  1  2  1  0  0  0  0
  1  3  1  0  0  0  0
  1  4  1  0  0  0  0
  4  5  1  0  0  0  0
  4  6  1  0  0  0  0
  4  7  1  0  0  0  0
  7  8  1  0  0  0  0
  7  9  1  0  0  0  0
  7 10  1  0  0  0  0
 10 11  1  0  0  0  0
 10 12  1  0  0  0  0
 10 13  1  0  0  0  0
 13 14  1  0  0  0  0
 13 15  1  0  0  0  0
 13 16  1  0  0  0  0
 16 17  1  0  0  0  0
 16 18  1  0  0  0  0
 16 19  1  0  0  0  0
 19 20  1  0  0  0  0
 19 21  1  0  0  0  0
 19 22  1  0  0  0  0
  1 23  1  0  0  0  0
 23 24  1  0  0  0  0
 23 25  1  0  0  0  0
 23 26  1  0  0  0  0
M  END
> <VM2 Rank>
23

> <Conf_Id>
441

> <Probability>
1.29

> <Sum Probability>
54.93

> <Delta G>
1.001

> <G>
76.467

> <E>
44.034

> <-TS>
32.433

> <U+W>
22.573

> <U>
71.723

> <W>
-49.150

> <W(PB)>
-51.448

> <W(SA)>
2.298

> <Valence>
2.539

> <Coulomb>
68.643

> <VdW>
0.540

> <VdW6>
-6.633

> <VdW12>
7.173

> <Bond>
0.200

> <Angle>
0.745

> <Pdih>
1.595

> <Idih>
0.000

> <Tether>
0.000

$$$$
VeraChem MOL file


 26 25  0  0  0  0  0  0  0  0999 V2000     
   19.8961   18.7822   26.4248 N   0  3  0  0  0  0  0  0  0  0  0  0
   20.4000   18.9183   27.3156 H   0  0  0  0  0  0  0  0  0  0  0  0
   19.6889   17.7722   26.3882 H   0  0  0  0  0  0  0  0  0  0  0  0
   20.7971   19.1761   25.2662 C   0  0  0  0  0  0  0  0  0  0  0  0
   21.7593   18.6811   25.4209 H   0  0  0  0  0  0  0  0  0  0  0  0
   20.9593   20.2557   25.3177 H   0  0  0  0  0  0  0  0  0  0  0  0
   20.2549   18.7931   23.8741 C   0  0  0  0  0  0  0  0  0  0  0  0
   20.0488   17.7150   23.8482 H   0  0  0  0  0  0  0  0  0  0  0  0
   19.3031   19.3092   23.7007 H   0  0  0  0  0  0  0  0  0  0  0  0
   21.2637   19.1573   22.7592 C   0  0  0  0  0  0  0  0  0  0  0  0
   22.2335   18.6954   22.9911 H   0  0  0  0  0  0  0  0  0  0  0  0
   21.4335   20.2430   22.7536 H   0  0  0  0  0  0  0  0  0  0  0  0
   20.8240   18.6933   21.3485 C   0  0  0  0  0  0  0  0  0  0  0  0
   21.6466   18.8875   20.6464 H   0  0  0  0  0  0  0  0  0  0  0  0
   20.6711   17.6052   21.3495 H   0  0  0  0  0  0  0  0  0  0  0  0
   19.5470   19.3991   20.8333 C   0  0  0  0  0  0  0  0  0  0  0  0
   19.6799   20.4890   20.8817 H   0  0  0  0  0  0  0  0  0  0  0  0
   18.6916   19.1536   21.4766 H   0  0  0  0  0  0  0  0  0  0  0  0
   19.2155   18.9886   19.3826 C   0  0  0  0  0  0  0  0  0  0  0  0
   20.0323   19.2560   18.6995 H   0  0  0  0  0  0  0  0  0  0  0  0
   18.3063   19.4955   19.0343 H   0  0  0  0  0  0  0  0  0  0  0  0
   19.0475   17.9063   19.3073 H   0  0  0  0  0  0  0  0  0  0  0  0
   18.6096   19.6004   26.4281 C   0  0  0  0  0  0  0  0  0  0  0  0
   18.0080   19.3161   27.2943 H   0  0  0  0  0  0  0  0  0  0  0  0
   18.8598   20.6620   26.4856 H   0  0  0  0  0  0  0  0  0  0  0  0
   18.0508   19.4000   25.5119 H   0  0  0  0  0  0  0  0  0  0  0  0
  1  2  1  0  0  0  0
  1  3  1  0  0  0  0
  1  4  1  0  0  0  0
  4  5  1  0  0  0  0
  4  6  1  0  0  0  0
  4  7  1  0  0  0  0
  7  8  1  0  0  0  0
  7  9  1  0  0  0  0
  7 10  1  0  0  0  0
 10 11  1  0  0  0  0
 10 12  1  0  0  0  0
 10 13  1  0  0  0  0
 13 14  1  0  0  0  0
 13 15  1  0  0  0  0
 13 16  1  0  0  0  0
 16 17  1  0  0  0  0
 16 18  1  0  0  0  0
 16 19  1  0  0  0  0
 19 20  1  0  0  0  0
 19 21  1  0  0  0  0
 19 22  1  0  0  0  0
  1 23  1  0  0  0  0
 23 24  1  0  0  0  0
 23 25  1  0  0  0  0
 23 26  1  0  0  0  0
M  END
> <VM2 Rank>
24

> <Conf_Id>
1085

> <Probability>
1.24

> <Sum Probability>
56.17

> <Delta G>
1.024

> <G>
76.490

> <E>
44.058

> <-TS>
32.431

> <U+W>
22.596

> <U>
71.707

> <W>
-49.110

> <W(PB)>
-51.411

> <W(SA)>
2.301

> <Valence>
2.540

> <Coulomb>
68.632

> <VdW>
0.535

> <VdW6>
-6.648

> <VdW12>
7.183

> <Bond>
0.201

> <Angle>
0.741

> <Pdih>
1.599

> <Idih>
0.000

> <Tether>
0.000

$$$$
VeraChem MOL file


 26 25  0  0  0  0  0  0  0  0999 V2000     
   19.2940   18.8530   25.6646 N   0  3  0  0  0  0  0  0  0  0  0  0
   19.2349   17.8230   25.6839 H   0  0  0  0  0  0  0  0  0  0  0  0
   18.6313   19.1545   24.9345 H   0  0  0  0  0  0  0  0  0  0  0  0
   20.7011   19.2880   25.3029 C   0  0  0  0  0  0  0  0  0  0  0  0
   21.3660   18.9489   26.1014 H   0  0  0  0  0  0  0  0  0  0  0  0
   20.7220   20.3805   25.2826 H   0  0  0  0  0  0  0  0  0  0  0  0
   21.2003   18.7346   23.9535 C   0  0  0  0  0  0  0  0  0  0  0  0
   22.2549   19.0161   23.8328 H   0  0  0  0  0  0  0  0  0  0  0  0
   21.1699   17.6370   23.9731 H   0  0  0  0  0  0  0  0  0  0  0  0
   20.3864   19.2670   22.7500 C   0  0  0  0  0  0  0  0  0  0  0  0
   20.4012   20.3658   22.7560 H   0  0  0  0  0  0  0  0  0  0  0  0
   19.3379   18.9605   22.8520 H   0  0  0  0  0  0  0  0  0  0  0  0
   20.9495   18.7505   21.4040 C   0  0  0  0  0  0  0  0  0  0  0  0
   22.0165   19.0049   21.3395 H   0  0  0  0  0  0  0  0  0  0  0  0
   20.8915   17.6536   21.3743 H   0  0  0  0  0  0  0  0  0  0  0  0
   20.2295   19.3395   20.1666 C   0  0  0  0  0  0  0  0  0  0  0  0
   20.7563   19.0072   19.2612 H   0  0  0  0  0  0  0  0  0  0  0  0
   20.3041   20.4359   20.1798 H   0  0  0  0  0  0  0  0  0  0  0  0
   18.7452   18.9207   20.0606 C   0  0  0  0  0  0  0  0  0  0  0  0
   18.3098   19.2848   19.1211 H   0  0  0  0  0  0  0  0  0  0  0  0
   18.1487   19.3361   20.8821 H   0  0  0  0  0  0  0  0  0  0  0  0
   18.6408   17.8281   20.0771 H   0  0  0  0  0  0  0  0  0  0  0  0
   18.9020   19.4366   27.0148 C   0  0  0  0  0  0  0  0  0  0  0  0
   18.9416   20.5267   26.9600 H   0  0  0  0  0  0  0  0  0  0  0  0
   17.8876   19.1163   27.2627 H   0  0  0  0  0  0  0  0  0  0  0  0
   19.5983   19.0788   27.7764 H   0  0  0  0  0  0  0  0  0  0  0  0
  1  2  1  0  0  0  0
  1  3  1  0  0  0  0
  1  4  1  0  0  0  0
  4  5  1  0  0  0  0
  4  6  1  0  0  0  0
  4  7  1  0  0  0  0
  7  8  1  0  0  0  0
  7  9  1  0  0  0  0
  7 10  1  0  0  0  0
 10 11  1  0  0  0  0
 10 12  1  0  0  0  0
 10 13  1  0  0  0  0
 13 14  1  0  0  0  0
 13 15  1  0  0  0  0
 13 16  1  0  0  0  0
 16 17  1  0  0  0  0
 16 18  1  0  0  0  0
 16 19  1  0  0  0  0
 19 20  1  0  0  0  0
 19 21  1  0  0  0  0
 19 22  1  0  0  0  0
  1 23  1  0  0  0  0
 23 24  1  0  0  0  0
 23 25  1  0  0  0  0
 23 26  1  0  0  0  0
M  END
> <VM2 Rank>
25

> <Conf_Id>
1183

> <Probability>
1.14

> <Sum Probability>
57.31

> <Delta G>
1.073

> <G>
76.539

> <E>
44.179

> <-TS>
32.360

> <U+W>
22.717

> <U>
71.970

> <W>
-49.253

> <W(PB)>
-51.560

> <W(SA)>
2.307

> <Valence>
2.341

> <Coulomb>
69.301

> <VdW>
0.327

> <VdW6>
-6.486

> <VdW12>
6.813

> <Bond>
0.179

> <Angle>
0.655

> <Pdih>
1.507

> <Idih>
0.000

> <Tether>
0.000

$$$$
VeraChem MOL file


 26 25  0  0  0  0  0  0  0  0999 V2000     
   20.3582   19.5876   25.8079 N   0  3  0  0  0  0  0  0  0  0  0  0
   20.5087   20.3491   25.1292 H   0  0  0  0  0  0  0  0  0  0  0  0
   21.2927   19.1890   25.9882 H   0  0  0  0  0  0  0  0  0  0  0  0
   19.4469   18.5317   25.2125 C   0  0  0  0  0  0  0  0  0  0  0  0
   18.4731   18.9920   25.0273 H   0  0  0  0  0  0  0  0  0  0  0  0
   19.3165   17.7479   25.9630 H   0  0  0  0  0  0  0  0  0  0  0  0
   19.9815   17.9067   23.9088 C   0  0  0  0  0  0  0  0  0  0  0  0
   20.9625   17.4503   24.0967 H   0  0  0  0  0  0  0  0  0  0  0  0
   19.3082   17.0909   23.6137 H   0  0  0  0  0  0  0  0  0  0  0  0
   20.0833   18.9299   22.7526 C   0  0  0  0  0  0  0  0  0  0  0  0
   20.7869   19.7291   23.0210 H   0  0  0  0  0  0  0  0  0  0  0  0
   19.1030   19.4021   22.6049 H   0  0  0  0  0  0  0  0  0  0  0  0
   20.5497   18.2623   21.4365 C   0  0  0  0  0  0  0  0  0  0  0  0
   21.4939   17.7305   21.6187 H   0  0  0  0  0  0  0  0  0  0  0  0
   19.8207   17.5000   21.1284 H   0  0  0  0  0  0  0  0  0  0  0  0
   20.7673   19.2662   20.2784 C   0  0  0  0  0  0  0  0  0  0  0  0
   21.1938   18.7276   19.4205 H   0  0  0  0  0  0  0  0  0  0  0  0
   21.5149   20.0164   20.5719 H   0  0  0  0  0  0  0  0  0  0  0  0
   19.4698   19.9746   19.8264 C   0  0  0  0  0  0  0  0  0  0  0  0
   19.6616   20.6027   18.9469 H   0  0  0  0  0  0  0  0  0  0  0  0
   19.0695   20.6248   20.6141 H   0  0  0  0  0  0  0  0  0  0  0  0
   18.6955   19.2453   19.5551 H   0  0  0  0  0  0  0  0  0  0  0  0
   19.7512   20.1310   27.0938 C   0  0  0  0  0  0  0  0  0  0  0  0
   20.4167   20.8899   27.5114 H   0  0  0  0  0  0  0  0  0  0  0  0
   18.7783   20.5752   26.8721 H   0  0  0  0  0  0  0  0  0  0  0  0
   19.6307   19.3131   27.8076 H   0  0  0  0  0  0  0  0  0  0  0  0
  1  2  1  0  0  0  0
  1  3  1  0  0  0  0
  1  4  1  0  0  0  0
  4  5  1  0  0  0  0
  4  6  1  0  0  0  0
  4  7  1  0  0  0  0
  7  8  1  0  0  0  0
  7  9  1  0  0  0  0
  7 10  1  0  0  0  0
 10 11  1  0  0  0  0
 10 12  1  0  0  0  0
 10 13  1  0  0  0  0
 13 14  1  0  0  0  0
 13 15  1  0  0  0  0
 13 16  1  0  0  0  0
 16 17  1  0  0  0  0
 16 18  1  0  0  0  0
 16 19  1  0  0  0  0
 19 20  1  0  0  0  0
 19 21  1  0  0  0  0
 19 22  1  0  0  0  0
  1 23  1  0  0  0  0
 23 24  1  0  0  0  0
 23 25  1  0  0  0  0
 23 26  1  0  0  0  0
M  END
> <VM2 Rank>
26

> <Conf_Id>
1119

> <Probability>
1.14

> <Sum Probability>
58.45

> <Delta G>
1.077

> <G>
76.543

> <E>
44.176

> <-TS>
32.367

> <U+W>
22.714

> <U>
71.833

> <W>
-49.119

> <W(PB)>
-51.436

> <W(SA)>
2.317

> <Valence>
2.344

> <Coulomb>
69.159

> <VdW>
0.330

> <VdW6>
-6.475

> <VdW12>
6.805

> <Bond>
0.178

> <Angle>
0.658

> <Pdih>
1.508

> <Idih>
0.000

> <Tether>
0.000

$$$$
VeraChem MOL file


 26 25  0  0  0  0  0  0  0  0999 V2000     
   19.8921   18.9398   26.2621 N   0  3  0  0  0  0  0  0  0  0  0  0
   20.6005   18.2937   26.6435 H   0  0  0  0  0  0  0  0  0  0  0  0
   18.9870   18.4610   26.3896 H   0  0  0  0  0  0  0  0  0  0  0  0
   20.1495   19.1879   24.7894 C   0  0  0  0  0  0  0  0  0  0  0  0
   21.1184   19.6850   24.6973 H   0  0  0  0  0  0  0  0  0  0  0  0
   19.3765   19.8694   24.4266 H   0  0  0  0  0  0  0  0  0  0  0  0
   20.1461   17.8990   23.9451 C   0  0  0  0  0  0  0  0  0  0  0  0
   20.8979   17.2055   24.3448 H   0  0  0  0  0  0  0  0  0  0  0  0
   19.1738   17.3977   24.0403 H   0  0  0  0  0  0  0  0  0  0  0  0
   20.4508   18.1642   22.4518 C   0  0  0  0  0  0  0  0  0  0  0  0
   20.5137   17.2005   21.9279 H   0  0  0  0  0  0  0  0  0  0  0  0
   21.4407   18.6316   22.3651 H   0  0  0  0  0  0  0  0  0  0  0  0
   19.3815   19.0503   21.7637 C   0  0  0  0  0  0  0  0  0  0  0  0
   18.3869   18.6211   21.9476 H   0  0  0  0  0  0  0  0  0  0  0  0
   19.3745   20.0523   22.2133 H   0  0  0  0  0  0  0  0  0  0  0  0
   19.5845   19.1815   20.2348 C   0  0  0  0  0  0  0  0  0  0  0  0
   18.7346   19.7354   19.8121 H   0  0  0  0  0  0  0  0  0  0  0  0
   19.5635   18.1859   19.7699 H   0  0  0  0  0  0  0  0  0  0  0  0
   20.8937   19.9075   19.8497 C   0  0  0  0  0  0  0  0  0  0  0  0
   20.9515   20.8959   20.3236 H   0  0  0  0  0  0  0  0  0  0  0  0
   20.9469   20.0531   18.7630 H   0  0  0  0  0  0  0  0  0  0  0  0
   21.7777   19.3305   20.1482 H   0  0  0  0  0  0  0  0  0  0  0  0
   19.9097   20.2598   27.0204 C   0  0  0  0  0  0  0  0  0  0  0  0
   19.1307   20.9135   26.6218 H   0  0  0  0  0  0  0  0  0  0  0  0
   19.7233   20.0671   28.0793 H   0  0  0  0  0  0  0  0  0  0  0  0
   20.8872   20.7314   26.8979 H   0  0  0  0  0  0  0  0  0  0  0  0
  1  2  1  0  0  0  0
  1  3  1  0  0  0  0
  1  4  1  0  0  0  0
  4  5  1  0  0  0  0
  4  6  1  0  0  0  0
  4  7  1  0  0  0  0
  7  8  1  0  0  0  0
  7  9  1  0  0  0  0
  7 10  1  0  0  0  0
 10 11  1  0  0  0  0
 10 12  1  0  0  0  0
 10 13  1  0  0  0  0
 13 14  1  0  0  0  0
 13 15  1  0  0  0  0
 13 16  1  0  0  0  0
 16 17  1  0  0  0  0
 16 18  1  0  0  0  0
 16 19  1  0  0  0  0
 19 20  1  0  0  0  0
 19 21  1  0  0  0  0
 19 22  1  0  0  0  0
  1 23  1  0  0  0  0
 23 24  1  0  0  0  0
 23 25  1  0  0  0  0
 23 26  1  0  0  0  0
M  END
> <VM2 Rank>
27

> <Conf_Id>
200

> <Probability>
1.12

> <Sum Probability>
59.57

> <Delta G>
1.085

> <G>
76.551

> <E>
44.172

> <-TS>
32.379

> <U+W>
22.710

> <U>
71.734

> <W>
-49.024

> <W(PB)>
-51.338

> <W(SA)>
2.314

> <Valence>
2.508

> <Coulomb>
68.926

> <VdW>
0.300

> <VdW6>
-6.530

> <VdW12>
6.830

> <Bond>
0.185

> <Angle>
0.693

> <Pdih>
1.630

> <Idih>
0.000

> <Tether>
0.000

$$$$
VeraChem MOL file


 26 25  0  0  0  0  0  0  0  0999 V2000     
   20.6687   18.9933   25.7132 N   0  3  0  0  0  0  0  0  0  0  0  0
   21.3064   19.4276   25.0292 H   0  0  0  0  0  0  0  0  0  0  0  0
   20.9331   17.9964   25.7441 H   0  0  0  0  0  0  0  0  0  0  0  0
   19.2316   19.1379   25.2508 C   0  0  0  0  0  0  0  0  0  0  0  0
   18.9921   20.2038   25.2214 H   0  0  0  0  0  0  0  0  0  0  0  0
   18.5947   18.6658   26.0032 H   0  0  0  0  0  0  0  0  0  0  0  0
   18.9501   18.5048   23.8738 C   0  0  0  0  0  0  0  0  0  0  0  0
   19.2000   17.4359   23.9033 H   0  0  0  0  0  0  0  0  0  0  0  0
   17.8716   18.5686   23.6775 H   0  0  0  0  0  0  0  0  0  0  0  0
   19.7222   19.1992   22.7265 C   0  0  0  0  0  0  0  0  0  0  0  0
   20.8012   19.1097   22.9038 H   0  0  0  0  0  0  0  0  0  0  0  0
   19.4856   20.2723   22.7237 H   0  0  0  0  0  0  0  0  0  0  0  0
   19.3705   18.5894   21.3481 C   0  0  0  0  0  0  0  0  0  0  0  0
   19.6505   17.5270   21.3303 H   0  0  0  0  0  0  0  0  0  0  0  0
   18.2813   18.6238   21.2072 H   0  0  0  0  0  0  0  0  0  0  0  0
   20.0418   19.3204   20.1600 C   0  0  0  0  0  0  0  0  0  0  0  0
   19.7466   20.3790   20.1601 H   0  0  0  0  0  0  0  0  0  0  0  0
   19.6576   18.8950   19.2223 H   0  0  0  0  0  0  0  0  0  0  0  0
   21.5837   19.2105   20.1612 C   0  0  0  0  0  0  0  0  0  0  0  0
   22.0014   19.6617   19.2519 H   0  0  0  0  0  0  0  0  0  0  0  0
   21.9051   18.1614   20.1929 H   0  0  0  0  0  0  0  0  0  0  0  0
   22.0250   19.7320   21.0195 H   0  0  0  0  0  0  0  0  0  0  0  0
   20.8394   19.6345   27.0834 C   0  0  0  0  0  0  0  0  0  0  0  0
   20.1781   19.1380   27.7969 H   0  0  0  0  0  0  0  0  0  0  0  0
   21.8777   19.5238   27.4040 H   0  0  0  0  0  0  0  0  0  0  0  0
   20.5844   20.6945   27.0181 H   0  0  0  0  0  0  0  0  0  0  0  0
  1  2  1  0  0  0  0
  1  3  1  0  0  0  0
  1  4  1  0  0  0  0
  4  5  1  0  0  0  0
  4  6  1  0  0  0  0
  4  7  1  0  0  0  0
  7  8  1  0  0  0  0
  7  9  1  0  0  0  0
  7 10  1  0  0  0  0
 10 11  1  0  0  0  0
 10 12  1  0  0  0  0
 10 13  1  0  0  0  0
 13 14  1  0  0  0  0
 13 15  1  0  0  0  0
 13 16  1  0  0  0  0
 16 17  1  0  0  0  0
 16 18  1  0  0  0  0
 16 19  1  0  0  0  0
 19 20  1  0  0  0  0
 19 21  1  0  0  0  0
 19 22  1  0  0  0  0
  1 23  1  0  0  0  0
 23 24  1  0  0  0  0
 23 25  1  0  0  0  0
 23 26  1  0  0  0  0
M  END
> <VM2 Rank>
28

> <Conf_Id>
834

> <Probability>
1.12

> <Sum Probability>
60.69

> <Delta G>
1.085

> <G>
76.551

> <E>
44.191

> <-TS>
32.360

> <U+W>
22.729

> <U>
71.970

> <W>
-49.241

> <W(PB)>
-51.540

> <W(SA)>
2.299

> <Valence>
2.341

> <Coulomb>
69.301

> <VdW>
0.328

> <VdW6>
-6.486

> <VdW12>
6.814

> <Bond>
0.179

> <Angle>
0.655

> <Pdih>
1.507

> <Idih>
0.000

> <Tether>
0.000

$$$$
VeraChem MOL file


 26 25  0  0  0  0  0  0  0  0999 V2000     
   19.4714   19.4978   25.7764 N   0  3  0  0  0  0  0  0  0  0  0  0
   18.6253   18.9190   25.8936 H   0  0  0  0  0  0  0  0  0  0  0  0
   19.2196   20.2186   25.0835 H   0  0  0  0  0  0  0  0  0  0  0  0
   20.6151   18.6500   25.2539 C   0  0  0  0  0  0  0  0  0  0  0  0
   20.8468   17.9028   26.0173 H   0  0  0  0  0  0  0  0  0  0  0  0
   21.4876   19.2972   25.1342 H   0  0  0  0  0  0  0  0  0  0  0  0
   20.3091   17.9399   23.9205 C   0  0  0  0  0  0  0  0  0  0  0  0
   21.1511   17.2776   23.6790 H   0  0  0  0  0  0  0  0  0  0  0  0
   19.4287   17.2950   24.0423 H   0  0  0  0  0  0  0  0  0  0  0  0
   20.0858   18.9302   22.7527 C   0  0  0  0  0  0  0  0  0  0  0  0
   20.9597   19.5901   22.6707 H   0  0  0  0  0  0  0  0  0  0  0  0
   19.2195   19.5705   22.9655 H   0  0  0  0  0  0  0  0  0  0  0  0
   19.8560   18.1920   21.4119 C   0  0  0  0  0  0  0  0  0  0  0  0
   20.7425   17.5933   21.1611 H   0  0  0  0  0  0  0  0  0  0  0  0
   19.0269   17.4807   21.5313 H   0  0  0  0  0  0  0  0  0  0  0  0
   19.5235   19.1403   20.2343 C   0  0  0  0  0  0  0  0  0  0  0  0
   18.6222   19.7235   20.4693 H   0  0  0  0  0  0  0  0  0  0  0  0
   19.2748   18.5333   19.3525 H   0  0  0  0  0  0  0  0  0  0  0  0
   20.6813   20.0973   19.8694 C   0  0  0  0  0  0  0  0  0  0  0  0
   20.4298   20.6805   18.9741 H   0  0  0  0  0  0  0  0  0  0  0  0
   21.6031   19.5398   19.6583 H   0  0  0  0  0  0  0  0  0  0  0  0
   20.8871   20.8088   20.6785 H   0  0  0  0  0  0  0  0  0  0  0  0
   19.8656   20.1426   27.0979 C   0  0  0  0  0  0  0  0  0  0  0  0
   20.0971   19.3603   27.8241 H   0  0  0  0  0  0  0  0  0  0  0  0
   20.7431   20.7740   26.9418 H   0  0  0  0  0  0  0  0  0  0  0  0
   19.0341   20.7499   27.4624 H   0  0  0  0  0  0  0  0  0  0  0  0
  1  2  1  0  0  0  0
  1  3  1  0  0  0  0
  1  4  1  0  0  0  0
  4  5  1  0  0  0  0
  4  6  1  0  0  0  0
  4  7  1  0  0  0  0
  7  8  1  0  0  0  0
  7  9  1  0  0  0  0
  7 10  1  0  0  0  0
 10 11  1  0  0  0  0
 10 12  1  0  0  0  0
 10 13  1  0  0  0  0
 13 14  1  0  0  0  0
 13 15  1  0  0  0  0
 13 16  1  0  0  0  0
 16 17  1  0  0  0  0
 16 18  1  0  0  0  0
 16 19  1  0  0  0  0
 19 20  1  0  0  0  0
 19 21  1  0  0  0  0
 19 22  1  0  0  0  0
  1 23  1  0  0  0  0
 23 24  1  0  0  0  0
 23 25  1  0  0  0  0
 23 26  1  0  0  0  0
M  END
> <VM2 Rank>
29

> <Conf_Id>
249

> <Probability>
1.07

> <Sum Probability>
61.77

> <Delta G>
1.110

> <G>
76.576

> <E>
44.209

> <-TS>
32.367

> <U+W>
22.747

> <U>
71.833

> <W>
-49.086

> <W(PB)>
-51.406

> <W(SA)>
2.321

> <Valence>
2.344

> <Coulomb>
69.159

> <VdW>
0.330

> <VdW6>
-6.475

> <VdW12>
6.805

> <Bond>
0.178

> <Angle>
0.658

> <Pdih>
1.508

> <Idih>
0.000

> <Tether>
0.000

$$$$
VeraChem MOL file


 26 25  0  0  0  0  0  0  0  0999 V2000     
   20.4259   19.6104   25.8093 N   0  3  0  0  0  0  0  0  0  0  0  0
   20.0779   20.4659   25.3507 H   0  0  0  0  0  0  0  0  0  0  0  0
   21.4372   19.5798   25.6069 H   0  0  0  0  0  0  0  0  0  0  0  0
   19.7396   18.3907   25.2251 C   0  0  0  0  0  0  0  0  0  0  0  0
   18.6728   18.4634   25.4511 H   0  0  0  0  0  0  0  0  0  0  0  0
   20.1377   17.5111   25.7374 H   0  0  0  0  0  0  0  0  0  0  0  0
   19.9381   18.2306   23.7050 C   0  0  0  0  0  0  0  0  0  0  0  0
   21.0115   18.1569   23.4893 H   0  0  0  0  0  0  0  0  0  0  0  0
   19.4883   17.2781   23.3949 H   0  0  0  0  0  0  0  0  0  0  0  0
   19.2995   19.3877   22.8965 C   0  0  0  0  0  0  0  0  0  0  0  0
   19.8024   20.3353   23.1312 H   0  0  0  0  0  0  0  0  0  0  0  0
   18.2529   19.5066   23.2099 H   0  0  0  0  0  0  0  0  0  0  0  0
   19.3297   19.1599   21.3650 C   0  0  0  0  0  0  0  0  0  0  0  0
   18.8068   18.2249   21.1208 H   0  0  0  0  0  0  0  0  0  0  0  0
   18.7602   19.9658   20.8816 H   0  0  0  0  0  0  0  0  0  0  0  0
   20.7586   19.1287   20.7721 C   0  0  0  0  0  0  0  0  0  0  0  0
   21.3227   18.2824   21.1860 H   0  0  0  0  0  0  0  0  0  0  0  0
   21.2991   20.0421   21.0574 H   0  0  0  0  0  0  0  0  0  0  0  0
   20.7340   19.0090   19.2333 C   0  0  0  0  0  0  0  0  0  0  0  0
   20.2256   18.0888   18.9171 H   0  0  0  0  0  0  0  0  0  0  0  0
   21.7547   18.9854   18.8299 H   0  0  0  0  0  0  0  0  0  0  0  0
   20.2123   19.8612   18.7787 H   0  0  0  0  0  0  0  0  0  0  0  0
   20.1825   19.6729   27.3107 C   0  0  0  0  0  0  0  0  0  0  0  0
   20.5868   18.7722   27.7778 H   0  0  0  0  0  0  0  0  0  0  0  0
   20.6812   20.5552   27.7181 H   0  0  0  0  0  0  0  0  0  0  0  0
   19.1084   19.7368   27.4981 H   0  0  0  0  0  0  0  0  0  0  0  0
  1  2  1  0  0  0  0
  1  3  1  0  0  0  0
  1  4  1  0  0  0  0
  4  5  1  0  0  0  0
  4  6  1  0  0  0  0
  4  7  1  0  0  0  0
  7  8  1  0  0  0  0
  7  9  1  0  0  0  0
  7 10  1  0  0  0  0
 10 11  1  0  0  0  0
 10 12  1  0  0  0  0
 10 13  1  0  0  0  0
 13 14  1  0  0  0  0
 13 15  1  0  0  0  0
 13 16  1  0  0  0  0
 16 17  1  0  0  0  0
 16 18  1  0  0  0  0
 16 19  1  0  0  0  0
 19 20  1  0  0  0  0
 19 21  1  0  0  0  0
 19 22  1  0  0  0  0
  1 23  1  0  0  0  0
 23 24  1  0  0  0  0
 23 25  1  0  0  0  0
 23 26  1  0  0  0  0
M  END
> <VM2 Rank>
30

> <Conf_Id>
778

> <Probability>
1.06

> <Sum Probability>
62.83

> <Delta G>
1.119

> <G>
76.585

> <E>
44.219

> <-TS>
32.365

> <U+W>
22.758

> <U>
71.994

> <W>
-49.236

> <W(PB)>
-51.536

> <W(SA)>
2.300

> <Valence>
2.376

> <Coulomb>
69.315

> <VdW>
0.303

> <VdW6>
-6.507

> <VdW12>
6.810

> <Bond>
0.182

> <Angle>
0.660

> <Pdih>
1.534

> <Idih>
0.000

> <Tether>
0.000

$$$$
VeraChem MOL file


 26 25  0  0  0  0  0  0  0  0999 V2000     
   20.0248   18.9532   26.2668 N   0  3  0  0  0  0  0  0  0  0  0  0
   20.9962   18.6642   26.4609 H   0  0  0  0  0  0  0  0  0  0  0  0
   19.4349   18.1758   26.6022 H   0  0  0  0  0  0  0  0  0  0  0  0
   19.8268   19.1553   24.7780 C   0  0  0  0  0  0  0  0  0  0  0  0
   20.4714   19.9802   24.4654 H   0  0  0  0  0  0  0  0  0  0  0  0
   18.7869   19.4492   24.6147 H   0  0  0  0  0  0  0  0  0  0  0  0
   20.1470   17.8991   23.9451 C   0  0  0  0  0  0  0  0  0  0  0  0
   21.1909   17.6017   24.1118 H   0  0  0  0  0  0  0  0  0  0  0  0
   19.5230   17.0664   24.2961 H   0  0  0  0  0  0  0  0  0  0  0  0
   19.9008   18.1087   22.4324 C   0  0  0  0  0  0  0  0  0  0  0  0
   18.8460   18.3693   22.2732 H   0  0  0  0  0  0  0  0  0  0  0  0
   20.0688   17.1556   21.9121 H   0  0  0  0  0  0  0  0  0  0  0  0
   20.8168   19.1956   21.8146 C   0  0  0  0  0  0  0  0  0  0  0  0
   20.5918   20.1755   22.2564 H   0  0  0  0  0  0  0  0  0  0  0  0
   21.8618   18.9726   22.0708 H   0  0  0  0  0  0  0  0  0  0  0  0
   20.6994   19.2942   20.2743 C   0  0  0  0  0  0  0  0  0  0  0  0
   20.9517   18.3262   19.8191 H   0  0  0  0  0  0  0  0  0  0  0  0
   21.4489   20.0098   19.9083 H   0  0  0  0  0  0  0  0  0  0  0  0
   19.3018   19.7464   19.7931 C   0  0  0  0  0  0  0  0  0  0  0  0
   19.2969   19.8861   18.7044 H   0  0  0  0  0  0  0  0  0  0  0  0
   19.0144   20.7000   20.2548 H   0  0  0  0  0  0  0  0  0  0  0  0
   18.5323   19.0022   20.0331 H   0  0  0  0  0  0  0  0  0  0  0  0
   19.6905   20.2376   27.0127 C   0  0  0  0  0  0  0  0  0  0  0  0
   19.8370   20.0785   28.0834 H   0  0  0  0  0  0  0  0  0  0  0  0
   20.3490   21.0366   26.6651 H   0  0  0  0  0  0  0  0  0  0  0  0
   18.6495   20.5051   26.8187 H   0  0  0  0  0  0  0  0  0  0  0  0
  1  2  1  0  0  0  0
  1  3  1  0  0  0  0
  1  4  1  0  0  0  0
  4  5  1  0  0  0  0
  4  6  1  0  0  0  0
  4  7  1  0  0  0  0
  7  8  1  0  0  0  0
  7  9  1  0  0  0  0
  7 10  1  0  0  0  0
 10 11  1  0  0  0  0
 10 12  1  0  0  0  0
 10 13  1  0  0  0  0
 13 14  1  0  0  0  0
 13 15  1  0  0  0  0
 13 16  1  0  0  0  0
 16 17  1  0  0  0  0
 16 18  1  0  0  0  0
 16 19  1  0  0  0  0
 19 20  1  0  0  0  0
 19 21  1  0  0  0  0
 19 22  1  0  0  0  0
  1 23  1  0  0  0  0
 23 24  1  0  0  0  0
 23 25  1  0  0  0  0
 23 26  1  0  0  0  0
M  END
> <VM2 Rank>
31

> <Conf_Id>
783

> <Probability>
1.06

> <Sum Probability>
63.88

> <Delta G>
1.121

> <G>
76.587

> <E>
44.208

> <-TS>
32.379

> <U+W>
22.746

> <U>
71.734

> <W>
-48.988

> <W(PB)>
-51.299

> <W(SA)>
2.311

> <Valence>
2.508

> <Coulomb>
68.926

> <VdW>
0.300

> <VdW6>
-6.530

> <VdW12>
6.830

> <Bond>
0.185

> <Angle>
0.693

> <Pdih>
1.631

> <Idih>
0.000

> <Tether>
0.000

$$$$
VeraChem MOL file


 26 25  0  0  0  0  0  0  0  0999 V2000     
   19.7881   19.6959   25.5552 N   0  3  0  0  0  0  0  0  0  0  0  0
   18.8781   19.6137   26.0344 H   0  0  0  0  0  0  0  0  0  0  0  0
   19.6286   20.3405   24.7664 H   0  0  0  0  0  0  0  0  0  0  0  0
   20.2283   18.3412   25.0359 C   0  0  0  0  0  0  0  0  0  0  0  0
   20.3737   17.6869   25.8992 H   0  0  0  0  0  0  0  0  0  0  0  0
   21.1936   18.4680   24.5402 H   0  0  0  0  0  0  0  0  0  0  0  0
   19.2240   17.6894   24.0628 C   0  0  0  0  0  0  0  0  0  0  0  0
   19.6007   16.6969   23.7821 H   0  0  0  0  0  0  0  0  0  0  0  0
   18.2744   17.5186   24.5871 H   0  0  0  0  0  0  0  0  0  0  0  0
   18.9598   18.5169   22.7796 C   0  0  0  0  0  0  0  0  0  0  0  0
   18.4904   19.4745   23.0416 H   0  0  0  0  0  0  0  0  0  0  0  0
   18.2275   17.9785   22.1620 H   0  0  0  0  0  0  0  0  0  0  0  0
   20.2377   18.7716   21.9442 C   0  0  0  0  0  0  0  0  0  0  0  0
   20.9626   19.3507   22.5317 H   0  0  0  0  0  0  0  0  0  0  0  0
   20.7167   17.8121   21.7047 H   0  0  0  0  0  0  0  0  0  0  0  0
   19.9261   19.5311   20.6354 C   0  0  0  0  0  0  0  0  0  0  0  0
   19.4449   20.4913   20.8688 H   0  0  0  0  0  0  0  0  0  0  0  0
   19.2089   18.9555   20.0335 H   0  0  0  0  0  0  0  0  0  0  0  0
   21.2018   19.7868   19.8047 C   0  0  0  0  0  0  0  0  0  0  0  0
   20.9604   20.3262   18.8796 H   0  0  0  0  0  0  0  0  0  0  0  0
   21.6879   18.8425   19.5267 H   0  0  0  0  0  0  0  0  0  0  0  0
   21.9253   20.3909   20.3675 H   0  0  0  0  0  0  0  0  0  0  0  0
   20.8421   20.2571   26.4993 C   0  0  0  0  0  0  0  0  0  0  0  0
   21.7863   20.3641   25.9608 H   0  0  0  0  0  0  0  0  0  0  0  0
   20.5130   21.2325   26.8646 H   0  0  0  0  0  0  0  0  0  0  0  0
   20.9713   19.5726   27.3406 H   0  0  0  0  0  0  0  0  0  0  0  0
  1  2  1  0  0  0  0
  1  3  1  0  0  0  0
  1  4  1  0  0  0  0
  4  5  1  0  0  0  0
  4  6  1  0  0  0  0
  4  7  1  0  0  0  0
  7  8  1  0  0  0  0
  7  9  1  0  0  0  0
  7 10  1  0  0  0  0
 10 11  1  0  0  0  0
 10 12  1  0  0  0  0
 10 13  1  0  0  0  0
 13 14  1  0  0  0  0
 13 15  1  0  0  0  0
 13 16  1  0  0  0  0
 16 17  1  0  0  0  0
 16 18  1  0  0  0  0
 16 19  1  0  0  0  0
 19 20  1  0  0  0  0
 19 21  1  0  0  0  0
 19 22  1  0  0  0  0
  1 23  1  0  0  0  0
 23 24  1  0  0  0  0
 23 25  1  0  0  0  0
 23 26  1  0  0  0  0
M  END
> <VM2 Rank>
32

> <Conf_Id>
835

> <Probability>
1.02

> <Sum Probability>
64.90

> <Delta G>
1.141

> <G>
76.607

> <E>
44.164

> <-TS>
32.443

> <U+W>
22.702

> <U>
71.905

> <W>
-49.203

> <W(PB)>
-51.495

> <W(SA)>
2.292

> <Valence>
2.125

> <Coulomb>
69.686

> <VdW>
0.093

> <VdW6>
-6.766

> <VdW12>
6.859

> <Bond>
0.169

> <Angle>
0.621

> <Pdih>
1.336

> <Idih>
0.000

> <Tether>
0.000

$$$$
VeraChem MOL file


 26 25  0  0  0  0  0  0  0  0999 V2000     
   20.4241   18.8021   25.9411 N   0  3  0  0  0  0  0  0  0  0  0  0
   21.1890   18.1410   25.7348 H   0  0  0  0  0  0  0  0  0  0  0  0
   19.7476   18.2703   26.5105 H   0  0  0  0  0  0  0  0  0  0  0  0
   19.7728   19.2672   24.6543 C   0  0  0  0  0  0  0  0  0  0  0  0
   20.5221   19.8203   24.0829 H   0  0  0  0  0  0  0  0  0  0  0  0
   18.9632   19.9529   24.9164 H   0  0  0  0  0  0  0  0  0  0  0  0
   19.2173   18.1116   23.8001 C   0  0  0  0  0  0  0  0  0  0  0  0
   20.0273   17.4157   23.5471 H   0  0  0  0  0  0  0  0  0  0  0  0
   18.4954   17.5387   24.3971 H   0  0  0  0  0  0  0  0  0  0  0  0
   18.5176   18.6041   22.5086 C   0  0  0  0  0  0  0  0  0  0  0  0
   17.6270   19.1847   22.7864 H   0  0  0  0  0  0  0  0  0  0  0  0
   18.1475   17.7336   21.9495 H   0  0  0  0  0  0  0  0  0  0  0  0
   19.4032   19.4693   21.5745 C   0  0  0  0  0  0  0  0  0  0  0  0
   18.7973   19.7766   20.7109 H   0  0  0  0  0  0  0  0  0  0  0  0
   19.6929   20.3978   22.0847 H   0  0  0  0  0  0  0  0  0  0  0  0
   20.6677   18.7373   21.0659 C   0  0  0  0  0  0  0  0  0  0  0  0
   20.3815   17.7879   20.5921 H   0  0  0  0  0  0  0  0  0  0  0  0
   21.3258   18.4873   21.9087 H   0  0  0  0  0  0  0  0  0  0  0  0
   21.4554   19.5972   20.0545 C   0  0  0  0  0  0  0  0  0  0  0  0
   22.3498   19.0644   19.7064 H   0  0  0  0  0  0  0  0  0  0  0  0
   21.7817   20.5416   20.5092 H   0  0  0  0  0  0  0  0  0  0  0  0
   20.8422   19.8349   19.1755 H   0  0  0  0  0  0  0  0  0  0  0  0
   20.9498   20.0012   26.7179 C   0  0  0  0  0  0  0  0  0  0  0  0
   20.1184   20.6693   26.9532 H   0  0  0  0  0  0  0  0  0  0  0  0
   21.4160   19.6528   27.6422 H   0  0  0  0  0  0  0  0  0  0  0  0
   21.6874   20.5284   26.1088 H   0  0  0  0  0  0  0  0  0  0  0  0
  1  2  1  0  0  0  0
  1  3  1  0  0  0  0
  1  4  1  0  0  0  0
  4  5  1  0  0  0  0
  4  6  1  0  0  0  0
  4  7  1  0  0  0  0
  7  8  1  0  0  0  0
  7  9  1  0  0  0  0
  7 10  1  0  0  0  0
 10 11  1  0  0  0  0
 10 12  1  0  0  0  0
 10 13  1  0  0  0  0
 13 14  1  0  0  0  0
 13 15  1  0  0  0  0
 13 16  1  0  0  0  0
 16 17  1  0  0  0  0
 16 18  1  0  0  0  0
 16 19  1  0  0  0  0
 19 20  1  0  0  0  0
 19 21  1  0  0  0  0
 19 22  1  0  0  0  0
  1 23  1  0  0  0  0
 23 24  1  0  0  0  0
 23 25  1  0  0  0  0
 23 26  1  0  0  0  0
M  END
> <VM2 Rank>
33

> <Conf_Id>
1326

> <Probability>
1.00

> <Sum Probability>
65.90

> <Delta G>
1.152

> <G>
76.618

> <E>
44.122

> <-TS>
32.497

> <U+W>
22.660

> <U>
72.035

> <W>
-49.376

> <W(PB)>
-51.684

> <W(SA)>
2.308

> <Valence>
2.479

> <Coulomb>
69.414

> <VdW>
0.143

> <VdW6>
-6.883

> <VdW12>
7.026

> <Bond>
0.193

> <Angle>
0.854

> <Pdih>
1.432

> <Idih>
0.000

> <Tether>
0.000

$$$$
VeraChem MOL file


 26 25  0  0  0  0  0  0  0  0999 V2000     
   20.0249   19.7198   25.5637 N   0  3  0  0  0  0  0  0  0  0  0  0
   20.1076   20.3889   24.7836 H   0  0  0  0  0  0  0  0  0  0  0  0
   20.8972   19.8173   26.1062 H   0  0  0  0  0  0  0  0  0  0  0  0
   19.9014   18.3082   25.0243 C   0  0  0  0  0  0  0  0  0  0  0  0
   18.9674   18.2435   24.4612 H   0  0  0  0  0  0  0  0  0  0  0  0
   19.8292   17.6319   25.8798 H   0  0  0  0  0  0  0  0  0  0  0  0
   21.0813   17.8769   24.1287 C   0  0  0  0  0  0  0  0  0  0  0  0
   22.0067   17.8954   24.7194 H   0  0  0  0  0  0  0  0  0  0  0  0
   20.9309   16.8312   23.8292 H   0  0  0  0  0  0  0  0  0  0  0  0
   21.2644   18.7495   22.8613 C   0  0  0  0  0  0  0  0  0  0  0  0
   22.1309   18.3725   22.3004 H   0  0  0  0  0  0  0  0  0  0  0  0
   21.5137   19.7797   23.1488 H   0  0  0  0  0  0  0  0  0  0  0  0
   20.0231   18.7500   21.9366 C   0  0  0  0  0  0  0  0  0  0  0  0
   19.7632   17.7159   21.6710 H   0  0  0  0  0  0  0  0  0  0  0  0
   19.1579   19.1688   22.4676 H   0  0  0  0  0  0  0  0  0  0  0  0
   20.2679   19.5655   20.6474 C   0  0  0  0  0  0  0  0  0  0  0  0
   21.1259   19.1488   20.1014 H   0  0  0  0  0  0  0  0  0  0  0  0
   20.5304   20.6007   20.9070 H   0  0  0  0  0  0  0  0  0  0  0  0
   19.0283   19.5674   19.7275 C   0  0  0  0  0  0  0  0  0  0  0  0
   18.1612   20.0111   20.2339 H   0  0  0  0  0  0  0  0  0  0  0  0
   18.7610   18.5471   19.4230 H   0  0  0  0  0  0  0  0  0  0  0  0
   19.2215   20.1505   18.8177 H   0  0  0  0  0  0  0  0  0  0  0  0
   18.8166   20.0526   26.4276 C   0  0  0  0  0  0  0  0  0  0  0  0
   17.9102   19.9731   25.8235 H   0  0  0  0  0  0  0  0  0  0  0  0
   18.7678   19.3500   27.2624 H   0  0  0  0  0  0  0  0  0  0  0  0
   18.9181   21.0713   26.8084 H   0  0  0  0  0  0  0  0  0  0  0  0
  1  2  1  0  0  0  0
  1  3  1  0  0  0  0
  1  4  1  0  0  0  0
  4  5  1  0  0  0  0
  4  6  1  0  0  0  0
  4  7  1  0  0  0  0
  7  8  1  0  0  0  0
  7  9  1  0  0  0  0
  7 10  1  0  0  0  0
 10 11  1  0  0  0  0
 10 12  1  0  0  0  0
 10 13  1  0  0  0  0
 13 14  1  0  0  0  0
 13 15  1  0  0  0  0
 13 16  1  0  0  0  0
 16 17  1  0  0  0  0
 16 18  1  0  0  0  0
 16 19  1  0  0  0  0
 19 20  1  0  0  0  0
 19 21  1  0  0  0  0
 19 22  1  0  0  0  0
  1 23  1  0  0  0  0
 23 24  1  0  0  0  0
 23 25  1  0  0  0  0
 23 26  1  0  0  0  0
M  END
> <VM2 Rank>
34

> <Conf_Id>
806

> <Probability>
0.99

> <Sum Probability>
66.89

> <Delta G>
1.161

> <G>
76.627

> <E>
44.184

> <-TS>
32.443

> <U+W>
22.722

> <U>
71.905

> <W>
-49.182

> <W(PB)>
-51.494

> <W(SA)>
2.312

> <Valence>
2.125

> <Coulomb>
69.686

> <VdW>
0.093

> <VdW6>
-6.766

> <VdW12>
6.859

> <Bond>
0.169

> <Angle>
0.621

> <Pdih>
1.336

> <Idih>
0.000

> <Tether>
0.000

$$$$
VeraChem MOL file


 26 25  0  0  0  0  0  0  0  0999 V2000     
   19.4004   19.5063   25.7729 N   0  3  0  0  0  0  0  0  0  0  0  0
   18.4325   19.2749   25.5004 H   0  0  0  0  0  0  0  0  0  0  0  0
   19.6009   20.4175   25.3338 H   0  0  0  0  0  0  0  0  0  0  0  0
   20.3566   18.4533   25.2470 C   0  0  0  0  0  0  0  0  0  0  0  0
   20.1082   17.5081   25.7364 H   0  0  0  0  0  0  0  0  0  0  0  0
   21.3686   18.7370   25.5466 H   0  0  0  0  0  0  0  0  0  0  0  0
   20.3013   18.2674   23.7179 C   0  0  0  0  0  0  0  0  0  0  0  0
   20.9536   17.4267   23.4469 H   0  0  0  0  0  0  0  0  0  0  0  0
   19.2824   17.9815   23.4280 H   0  0  0  0  0  0  0  0  0  0  0  0
   20.7500   19.5348   22.9479 C   0  0  0  0  0  0  0  0  0  0  0  0
   21.7269   19.8589   23.3331 H   0  0  0  0  0  0  0  0  0  0  0  0
   20.0522   20.3607   23.1401 H   0  0  0  0  0  0  0  0  0  0  0  0
   20.8735   19.3165   21.4197 C   0  0  0  0  0  0  0  0  0  0  0  0
   21.3023   20.2236   20.9717 H   0  0  0  0  0  0  0  0  0  0  0  0
   21.5891   18.5071   21.2194 H   0  0  0  0  0  0  0  0  0  0  0  0
   19.5250   19.0036   20.7284 C   0  0  0  0  0  0  0  0  0  0  0  0
   18.7937   19.7879   20.9687 H   0  0  0  0  0  0  0  0  0  0  0  0
   19.1145   18.0584   21.1077 H   0  0  0  0  0  0  0  0  0  0  0  0
   19.6808   18.9022   19.1960 C   0  0  0  0  0  0  0  0  0  0  0  0
   20.0515   19.8451   18.7730 H   0  0  0  0  0  0  0  0  0  0  0  0
   18.7165   18.6773   18.7222 H   0  0  0  0  0  0  0  0  0  0  0  0
   20.3843   18.1050   18.9226 H   0  0  0  0  0  0  0  0  0  0  0  0
   19.5204   19.6058   27.2872 C   0  0  0  0  0  0  0  0  0  0  0  0
   19.2734   18.6389   27.7312 H   0  0  0  0  0  0  0  0  0  0  0  0
   20.5440   19.8825   27.5489 H   0  0  0  0  0  0  0  0  0  0  0  0
   18.8275   20.3672   27.6524 H   0  0  0  0  0  0  0  0  0  0  0  0
  1  2  1  0  0  0  0
  1  3  1  0  0  0  0
  1  4  1  0  0  0  0
  4  5  1  0  0  0  0
  4  6  1  0  0  0  0
  4  7  1  0  0  0  0
  7  8  1  0  0  0  0
  7  9  1  0  0  0  0
  7 10  1  0  0  0  0
 10 11  1  0  0  0  0
 10 12  1  0  0  0  0
 10 13  1  0  0  0  0
 13 14  1  0  0  0  0
 13 15  1  0  0  0  0
 13 16  1  0  0  0  0
 16 17  1  0  0  0  0
 16 18  1  0  0  0  0
 16 19  1  0  0  0  0
 19 20  1  0  0  0  0
 19 21  1  0  0  0  0
 19 22  1  0  0  0  0
  1 23  1  0  0  0  0
 23 24  1  0  0  0  0
 23 25  1  0  0  0  0
 23 26  1  0  0  0  0
M  END
> <VM2 Rank>
35

> <Conf_Id>
443

> <Probability>
0.95

> <Sum Probability>
67.84

> <Delta G>
1.185

> <G>
76.651

> <E>
44.286

> <-TS>
32.365

> <U+W>
22.825

> <U>
71.994

> <W>
-49.169

> <W(PB)>
-51.490

> <W(SA)>
2.320

> <Valence>
2.376

> <Coulomb>
69.315

> <VdW>
0.303

> <VdW6>
-6.507

> <VdW12>
6.810

> <Bond>
0.182

> <Angle>
0.660

> <Pdih>
1.534

> <Idih>
0.000

> <Tether>
0.000

$$$$
VeraChem MOL file


 26 25  0  0  0  0  0  0  0  0999 V2000     
   19.7308   18.7293   26.0269 N   0  3  0  0  0  0  0  0  0  0  0  0
   20.1163   17.7727   26.0567 H   0  0  0  0  0  0  0  0  0  0  0  0
   18.7855   18.6339   25.6265 H   0  0  0  0  0  0  0  0  0  0  0  0
   20.5876   19.6096   25.1373 C   0  0  0  0  0  0  0  0  0  0  0  0
   21.5749   19.6824   25.6007 H   0  0  0  0  0  0  0  0  0  0  0  0
   20.1438   20.6082   25.1220 H   0  0  0  0  0  0  0  0  0  0  0  0
   20.7388   19.0867   23.6951 C   0  0  0  0  0  0  0  0  0  0  0  0
   21.4675   19.7247   23.1800 H   0  0  0  0  0  0  0  0  0  0  0  0
   21.1653   18.0750   23.7150 H   0  0  0  0  0  0  0  0  0  0  0  0
   19.3990   19.0848   22.9163 C   0  0  0  0  0  0  0  0  0  0  0  0
   18.9918   20.1047   22.8778 H   0  0  0  0  0  0  0  0  0  0  0  0
   18.6618   18.4791   23.4596 H   0  0  0  0  0  0  0  0  0  0  0  0
   19.5193   18.5205   21.4789 C   0  0  0  0  0  0  0  0  0  0  0  0
   19.9202   17.4981   21.5166 H   0  0  0  0  0  0  0  0  0  0  0  0
   18.5099   18.4391   21.0523 H   0  0  0  0  0  0  0  0  0  0  0  0
   20.3910   19.3888   20.5406 C   0  0  0  0  0  0  0  0  0  0  0  0
   21.4272   19.4174   20.9025 H   0  0  0  0  0  0  0  0  0  0  0  0
   20.0231   20.4244   20.5447 H   0  0  0  0  0  0  0  0  0  0  0  0
   20.3819   18.8491   19.0943 C   0  0  0  0  0  0  0  0  0  0  0  0
   20.7728   17.8241   19.0531 H   0  0  0  0  0  0  0  0  0  0  0  0
   21.0069   19.4742   18.4433 H   0  0  0  0  0  0  0  0  0  0  0  0
   19.3652   18.8442   18.6803 H   0  0  0  0  0  0  0  0  0  0  0  0
   19.6596   19.3211   27.4276 C   0  0  0  0  0  0  0  0  0  0  0  0
   19.2196   20.3194   27.3738 H   0  0  0  0  0  0  0  0  0  0  0  0
   19.0401   18.6784   28.0571 H   0  0  0  0  0  0  0  0  0  0  0  0
   20.6678   19.3829   27.8430 H   0  0  0  0  0  0  0  0  0  0  0  0
  1  2  1  0  0  0  0
  1  3  1  0  0  0  0
  1  4  1  0  0  0  0
  4  5  1  0  0  0  0
  4  6  1  0  0  0  0
  4  7  1  0  0  0  0
  7  8  1  0  0  0  0
  7  9  1  0  0  0  0
  7 10  1  0  0  0  0
 10 11  1  0  0  0  0
 10 12  1  0  0  0  0
 10 13  1  0  0  0  0
 13 14  1  0  0  0  0
 13 15  1  0  0  0  0
 13 16  1  0  0  0  0
 16 17  1  0  0  0  0
 16 18  1  0  0  0  0
 16 19  1  0  0  0  0
 19 20  1  0  0  0  0
 19 21  1  0  0  0  0
 19 22  1  0  0  0  0
  1 23  1  0  0  0  0
 23 24  1  0  0  0  0
 23 25  1  0  0  0  0
 23 26  1  0  0  0  0
M  END
> <VM2 Rank>
36

> <Conf_Id>
276

> <Probability>
0.92

> <Sum Probability>
68.76

> <Delta G>
1.200

> <G>
76.666

> <E>
44.336

> <-TS>
32.330

> <U+W>
22.874

> <U>
71.903

> <W>
-49.029

> <W(PB)>
-51.326

> <W(SA)>
2.298

> <Valence>
2.410

> <Coulomb>
69.133

> <VdW>
0.360

> <VdW6>
-6.461

> <VdW12>
6.821

> <Bond>
0.187

> <Angle>
0.708

> <Pdih>
1.514

> <Idih>
0.000

> <Tether>
0.000

$$$$
VeraChem MOL file


 26 25  0  0  0  0  0  0  0  0999 V2000     
   19.5549   18.7142   25.9104 N   0  3  0  0  0  0  0  0  0  0  0  0
   20.2825   18.3244   26.5296 H   0  0  0  0  0  0  0  0  0  0  0  0
   18.9540   17.9150   25.6557 H   0  0  0  0  0  0  0  0  0  0  0  0
   20.1885   19.3092   24.6692 C   0  0  0  0  0  0  0  0  0  0  0  0
   20.8244   20.1410   24.9824 H   0  0  0  0  0  0  0  0  0  0  0  0
   19.3857   19.7055   24.0427 H   0  0  0  0  0  0  0  0  0  0  0  0
   21.0222   18.2941   23.8641 C   0  0  0  0  0  0  0  0  0  0  0  0
   21.8004   17.8727   24.5142 H   0  0  0  0  0  0  0  0  0  0  0  0
   20.3874   17.4522   23.5599 H   0  0  0  0  0  0  0  0  0  0  0  0
   21.6981   18.9256   22.6214 C   0  0  0  0  0  0  0  0  0  0  0  0
   22.2730   18.1507   22.0957 H   0  0  0  0  0  0  0  0  0  0  0  0
   22.4331   19.6706   22.9568 H   0  0  0  0  0  0  0  0  0  0  0  0
   20.7252   19.6030   21.6214 C   0  0  0  0  0  0  0  0  0  0  0  0
   20.2206   20.4510   22.1035 H   0  0  0  0  0  0  0  0  0  0  0  0
   21.3165   20.0314   20.8003 H   0  0  0  0  0  0  0  0  0  0  0  0
   19.6715   18.6366   21.0304 C   0  0  0  0  0  0  0  0  0  0  0  0
   19.0192   18.2540   21.8267 H   0  0  0  0  0  0  0  0  0  0  0  0
   20.1742   17.7670   20.5846 H   0  0  0  0  0  0  0  0  0  0  0  0
   18.8007   19.3288   19.9602 C   0  0  0  0  0  0  0  0  0  0  0  0
   18.0576   18.6304   19.5540 H   0  0  0  0  0  0  0  0  0  0  0  0
   19.4142   19.6906   19.1248 H   0  0  0  0  0  0  0  0  0  0  0  0
   18.2610   20.1856   20.3842 H   0  0  0  0  0  0  0  0  0  0  0  0
   18.7469   19.7785   26.6399 C   0  0  0  0  0  0  0  0  0  0  0  0
   18.2961   19.3373   27.5317 H   0  0  0  0  0  0  0  0  0  0  0  0
   19.4094   20.5976   26.9282 H   0  0  0  0  0  0  0  0  0  0  0  0
   17.9633   20.1519   25.9769 H   0  0  0  0  0  0  0  0  0  0  0  0
  1  2  1  0  0  0  0
  1  3  1  0  0  0  0
  1  4  1  0  0  0  0
  4  5  1  0  0  0  0
  4  6  1  0  0  0  0
  4  7  1  0  0  0  0
  7  8  1  0  0  0  0
  7  9  1  0  0  0  0
  7 10  1  0  0  0  0
 10 11  1  0  0  0  0
 10 12  1  0  0  0  0
 10 13  1  0  0  0  0
 13 14  1  0  0  0  0
 13 15  1  0  0  0  0
 13 16  1  0  0  0  0
 16 17  1  0  0  0  0
 16 18  1  0  0  0  0
 16 19  1  0  0  0  0
 19 20  1  0  0  0  0
 19 21  1  0  0  0  0
 19 22  1  0  0  0  0
  1 23  1  0  0  0  0
 23 24  1  0  0  0  0
 23 25  1  0  0  0  0
 23 26  1  0  0  0  0
M  END
> <VM2 Rank>
37

> <Conf_Id>
859

> <Probability>
0.91

> <Sum Probability>
69.67

> <Delta G>
1.208

> <G>
76.674

> <E>
44.177

> <-TS>
32.497

> <U+W>
22.715

> <U>
72.035

> <W>
-49.320

> <W(PB)>
-51.620

> <W(SA)>
2.300

> <Valence>
2.479

> <Coulomb>
69.414

> <VdW>
0.143

> <VdW6>
-6.882

> <VdW12>
7.025

> <Bond>
0.193

> <Angle>
0.854

> <Pdih>
1.433

> <Idih>
0.000

> <Tether>
0.000

$$$$
VeraChem MOL file


 26 25  0  0  0  0  0  0  0  0999 V2000     
   20.0304   18.7533   26.3059 N   0  3  0  0  0  0  0  0  0  0  0  0
   20.8203   18.0918   26.3628 H   0  0  0  0  0  0  0  0  0  0  0  0
   19.2006   18.2159   26.6016 H   0  0  0  0  0  0  0  0  0  0  0  0
   19.8577   19.2403   24.8813 C   0  0  0  0  0  0  0  0  0  0  0  0
   20.7575   19.7969   24.6091 H   0  0  0  0  0  0  0  0  0  0  0  0
   19.0080   19.9274   24.8625 H   0  0  0  0  0  0  0  0  0  0  0  0
   19.6238   18.0993   23.8723 C   0  0  0  0  0  0  0  0  0  0  0  0
   20.4774   17.4087   23.8904 H   0  0  0  0  0  0  0  0  0  0  0  0
   18.7445   17.5204   24.1847 H   0  0  0  0  0  0  0  0  0  0  0  0
   19.3995   18.6110   22.4294 C   0  0  0  0  0  0  0  0  0  0  0  0
   18.5379   19.2928   22.4124 H   0  0  0  0  0  0  0  0  0  0  0  0
   19.1303   17.7535   21.7992 H   0  0  0  0  0  0  0  0  0  0  0  0
   20.6423   19.3227   21.8362 C   0  0  0  0  0  0  0  0  0  0  0  0
   20.9255   20.1656   22.4803 H   0  0  0  0  0  0  0  0  0  0  0  0
   21.4983   18.6339   21.8347 H   0  0  0  0  0  0  0  0  0  0  0  0
   20.4158   19.8668   20.4046 C   0  0  0  0  0  0  0  0  0  0  0  0
   21.2967   20.4531   20.1078 H   0  0  0  0  0  0  0  0  0  0  0  0
   19.5675   20.5655   20.4021 H   0  0  0  0  0  0  0  0  0  0  0  0
   20.1803   18.7584   19.3530 C   0  0  0  0  0  0  0  0  0  0  0  0
   19.2403   18.2228   19.5338 H   0  0  0  0  0  0  0  0  0  0  0  0
   20.9997   18.0280   19.3584 H   0  0  0  0  0  0  0  0  0  0  0  0
   20.1237   19.1909   18.3457 H   0  0  0  0  0  0  0  0  0  0  0  0
   20.2581   19.9382   27.2343 C   0  0  0  0  0  0  0  0  0  0  0  0
   21.1589   20.4712   26.9222 H   0  0  0  0  0  0  0  0  0  0  0  0
   19.3957   20.6064   27.1819 H   0  0  0  0  0  0  0  0  0  0  0  0
   20.3807   19.5737   28.2567 H   0  0  0  0  0  0  0  0  0  0  0  0
  1  2  1  0  0  0  0
  1  3  1  0  0  0  0
  1  4  1  0  0  0  0
  4  5  1  0  0  0  0
  4  6  1  0  0  0  0
  4  7  1  0  0  0  0
  7  8  1  0  0  0  0
  7  9  1  0  0  0  0
  7 10  1  0  0  0  0
 10 11  1  0  0  0  0
 10 12  1  0  0  0  0
 10 13  1  0  0  0  0
 13 14  1  0  0  0  0
 13 15  1  0  0  0  0
 13 16  1  0  0  0  0
 16 17  1  0  0  0  0
 16 18  1  0  0  0  0
 16 19  1  0  0  0  0
 19 20  1  0  0  0  0
 19 21  1  0  0  0  0
 19 22  1  0  0  0  0
  1 23  1  0  0  0  0
 23 24  1  0  0  0  0
 23 25  1  0  0  0  0
 23 26  1  0  0  0  0
M  END
> <VM2 Rank>
38

> <Conf_Id>
1517

> <Probability>
0.90

> <Sum Probability>
70.58

> <Delta G>
1.214

> <G>
76.680

> <E>
44.334

> <-TS>
32.346

> <U+W>
22.873

> <U>
71.810

> <W>
-48.937

> <W(PB)>
-51.228

> <W(SA)>
2.290

> <Valence>
2.569

> <Coulomb>
68.877

> <VdW>
0.364

> <VdW6>
-6.470

> <VdW12>
6.834

> <Bond>
0.191

> <Angle>
0.752

> <Pdih>
1.626

> <Idih>
0.000

> <Tether>
0.000

$$$$
VeraChem MOL file


 26 25  0  0  0  0  0  0  0  0999 V2000     
   19.9244   18.7424   26.3021 N   0  3  0  0  0  0  0  0  0  0  0  0
   20.8227   18.3813   26.6591 H   0  0  0  0  0  0  0  0  0  0  0  0
   19.2821   17.9349   26.3082 H   0  0  0  0  0  0  0  0  0  0  0  0
   20.0948   19.2645   24.8897 C   0  0  0  0  0  0  0  0  0  0  0  0
   20.7877   20.1089   24.9256 H   0  0  0  0  0  0  0  0  0  0  0  0
   19.1226   19.6301   24.5511 H   0  0  0  0  0  0  0  0  0  0  0  0
   20.6242   18.2014   23.9077 C   0  0  0  0  0  0  0  0  0  0  0  0
   21.5781   17.8096   24.2851 H   0  0  0  0  0  0  0  0  0  0  0  0
   19.9283   17.3527   23.8709 H   0  0  0  0  0  0  0  0  0  0  0  0
   20.8412   18.7581   22.4805 C   0  0  0  0  0  0  0  0  0  0  0  0
   21.3212   17.9771   21.8768 H   0  0  0  0  0  0  0  0  0  0  0  0
   21.5465   19.5998   22.5190 H   0  0  0  0  0  0  0  0  0  0  0  0
   19.5250   19.2087   21.7967 C   0  0  0  0  0  0  0  0  0  0  0  0
   18.8278   18.3614   21.7402 H   0  0  0  0  0  0  0  0  0  0  0  0
   19.0332   19.9726   22.4133 H   0  0  0  0  0  0  0  0  0  0  0  0
   19.7367   19.7975   20.3806 C   0  0  0  0  0  0  0  0  0  0  0  0
   20.4248   20.6529   20.4324 H   0  0  0  0  0  0  0  0  0  0  0  0
   18.7786   20.1963   20.0186 H   0  0  0  0  0  0  0  0  0  0  0  0
   20.2638   18.7669   19.3560 C   0  0  0  0  0  0  0  0  0  0  0  0
   21.2775   18.4305   19.6059 H   0  0  0  0  0  0  0  0  0  0  0  0
   20.3024   19.2091   18.3521 H   0  0  0  0  0  0  0  0  0  0  0  0
   19.6101   17.8863   19.3092 H   0  0  0  0  0  0  0  0  0  0  0  0
   19.3980   19.8504   27.2038 C   0  0  0  0  0  0  0  0  0  0  0  0
   18.4324   20.1931   26.8255 H   0  0  0  0  0  0  0  0  0  0  0  0
   19.2799   19.4614   28.2176 H   0  0  0  0  0  0  0  0  0  0  0  0
   20.1094   20.6791   27.2073 H   0  0  0  0  0  0  0  0  0  0  0  0
  1  2  1  0  0  0  0
  1  3  1  0  0  0  0
  1  4  1  0  0  0  0
  4  5  1  0  0  0  0
  4  6  1  0  0  0  0
  4  7  1  0  0  0  0
  7  8  1  0  0  0  0
  7  9  1  0  0  0  0
  7 10  1  0  0  0  0
 10 11  1  0  0  0  0
 10 12  1  0  0  0  0
 10 13  1  0  0  0  0
 13 14  1  0  0  0  0
 13 15  1  0  0  0  0
 13 16  1  0  0  0  0
 16 17  1  0  0  0  0
 16 18  1  0  0  0  0
 16 19  1  0  0  0  0
 19 20  1  0  0  0  0
 19 21  1  0  0  0  0
 19 22  1  0  0  0  0
  1 23  1  0  0  0  0
 23 24  1  0  0  0  0
 23 25  1  0  0  0  0
 23 26  1  0  0  0  0
M  END
> <VM2 Rank>
39

> <Conf_Id>
1335

> <Probability>
0.89

> <Sum Probability>
71.47

> <Delta G>
1.220

> <G>
76.686

> <E>
44.340

> <-TS>
32.346

> <U+W>
22.878

> <U>
71.810

> <W>
-48.932

> <W(PB)>
-51.256

> <W(SA)>
2.324

> <Valence>
2.569

> <Coulomb>
68.877

> <VdW>
0.364

> <VdW6>
-6.470

> <VdW12>
6.834

> <Bond>
0.191

> <Angle>
0.752

> <Pdih>
1.626

> <Idih>
0.000

> <Tether>
0.000

$$$$
VeraChem MOL file


 26 25  0  0  0  0  0  0  0  0999 V2000     
   20.4691   19.8145   25.7874 N   0  3  0  0  0  0  0  0  0  0  0  0
   20.4386   20.5055   26.5538 H   0  0  0  0  0  0  0  0  0  0  0  0
   21.0116   20.2695   25.0382 H   0  0  0  0  0  0  0  0  0  0  0  0
   19.0553   19.5248   25.3071 C   0  0  0  0  0  0  0  0  0  0  0  0
   18.5728   20.4865   25.1150 H   0  0  0  0  0  0  0  0  0  0  0  0
   18.5209   19.0391   26.1275 H   0  0  0  0  0  0  0  0  0  0  0  0
   18.9552   18.6510   24.0375 C   0  0  0  0  0  0  0  0  0  0  0  0
   19.3829   17.6592   24.2332 H   0  0  0  0  0  0  0  0  0  0  0  0
   17.8924   18.4899   23.8136 H   0  0  0  0  0  0  0  0  0  0  0  0
   19.6464   19.2928   22.8111 C   0  0  0  0  0  0  0  0  0  0  0  0
   20.7159   19.4199   23.0206 H   0  0  0  0  0  0  0  0  0  0  0  0
   19.2308   20.2953   22.6392 H   0  0  0  0  0  0  0  0  0  0  0  0
   19.4663   18.4331   21.5367 C   0  0  0  0  0  0  0  0  0  0  0  0
   19.9226   17.4451   21.6885 H   0  0  0  0  0  0  0  0  0  0  0  0
   18.3946   18.2559   21.3712 H   0  0  0  0  0  0  0  0  0  0  0  0
   20.0580   19.0851   20.2634 C   0  0  0  0  0  0  0  0  0  0  0  0
   19.5890   20.0645   20.0948 H   0  0  0  0  0  0  0  0  0  0  0  0
   19.7941   18.4651   19.3951 H   0  0  0  0  0  0  0  0  0  0  0  0
   21.5947   19.2458   20.3114 C   0  0  0  0  0  0  0  0  0  0  0  0
   21.9023   19.9571   21.0877 H   0  0  0  0  0  0  0  0  0  0  0  0
   21.9714   19.6228   19.3517 H   0  0  0  0  0  0  0  0  0  0  0  0
   22.0865   18.2847   20.5102 H   0  0  0  0  0  0  0  0  0  0  0  0
   21.1629   18.5430   26.2625 C   0  0  0  0  0  0  0  0  0  0  0  0
   21.2467   17.8441   25.4278 H   0  0  0  0  0  0  0  0  0  0  0  0
   22.1595   18.7961   26.6311 H   0  0  0  0  0  0  0  0  0  0  0  0
   20.5758   18.0930   27.0659 H   0  0  0  0  0  0  0  0  0  0  0  0
  1  2  1  0  0  0  0
  1  3  1  0  0  0  0
  1  4  1  0  0  0  0
  4  5  1  0  0  0  0
  4  6  1  0  0  0  0
  4  7  1  0  0  0  0
  7  8  1  0  0  0  0
  7  9  1  0  0  0  0
  7 10  1  0  0  0  0
 10 11  1  0  0  0  0
 10 12  1  0  0  0  0
 10 13  1  0  0  0  0
 13 14  1  0  0  0  0
 13 15  1  0  0  0  0
 13 16  1  0  0  0  0
 16 17  1  0  0  0  0
 16 18  1  0  0  0  0
 16 19  1  0  0  0  0
 19 20  1  0  0  0  0
 19 21  1  0  0  0  0
 19 22  1  0  0  0  0
  1 23  1  0  0  0  0
 23 24  1  0  0  0  0
 23 25  1  0  0  0  0
 23 26  1  0  0  0  0
M  END
> <VM2 Rank>
40

> <Conf_Id>
268

> <Probability>
0.86

> <Sum Probability>
72.33

> <Delta G>
1.245

> <G>
76.711

> <E>
44.125

> <-TS>
32.586

> <U+W>
22.663

> <U>
72.300

> <W>
-49.637

> <W(PB)>
-51.895

> <W(SA)>
2.258

> <Valence>
2.589

> <Coulomb>
69.201

> <VdW>
0.511

> <VdW6>
-7.408

> <VdW12>
7.919

> <Bond>
0.221

> <Angle>
0.820

> <Pdih>
1.547

> <Idih>
0.000

> <Tether>
0.000

$$$$
VeraChem MOL file


 26 25  0  0  0  0  0  0  0  0999 V2000     
   20.2418   18.7817   26.0449 N   0  3  0  0  0  0  0  0  0  0  0  0
   21.2126   18.8823   25.7124 H   0  0  0  0  0  0  0  0  0  0  0  0
   20.0566   17.7666   26.0546 H   0  0  0  0  0  0  0  0  0  0  0  0
   19.2890   19.4768   25.0914 C   0  0  0  0  0  0  0  0  0  0  0  0
   19.5216   20.5446   25.0999 H   0  0  0  0  0  0  0  0  0  0  0  0
   18.2775   19.3450   25.4839 H   0  0  0  0  0  0  0  0  0  0  0  0
   19.3480   18.9444   23.6458 C   0  0  0  0  0  0  0  0  0  0  0  0
   19.1344   17.8673   23.6431 H   0  0  0  0  0  0  0  0  0  0  0  0
   18.5433   19.4256   23.0764 H   0  0  0  0  0  0  0  0  0  0  0  0
   20.7117   19.2188   22.9629 C   0  0  0  0  0  0  0  0  0  0  0  0
   21.5163   18.7706   23.5607 H   0  0  0  0  0  0  0  0  0  0  0  0
   20.9062   20.3002   22.9458 H   0  0  0  0  0  0  0  0  0  0  0  0
   20.8089   18.6522   21.5246 C   0  0  0  0  0  0  0  0  0  0  0  0
   21.8413   18.7795   21.1704 H   0  0  0  0  0  0  0  0  0  0  0  0
   20.6212   17.5697   21.5414 H   0  0  0  0  0  0  0  0  0  0  0  0
   19.8478   19.3334   20.5213 C   0  0  0  0  0  0  0  0  0  0  0  0
   19.9977   20.4218   20.5439 H   0  0  0  0  0  0  0  0  0  0  0  0
   18.8044   19.1494   20.8095 H   0  0  0  0  0  0  0  0  0  0  0  0
   20.0670   18.8171   19.0831 C   0  0  0  0  0  0  0  0  0  0  0  0
   19.3758   19.3077   18.3855 H   0  0  0  0  0  0  0  0  0  0  0  0
   19.8952   17.7346   19.0219 H   0  0  0  0  0  0  0  0  0  0  0  0
   21.0903   19.0207   18.7415 H   0  0  0  0  0  0  0  0  0  0  0  0
   20.0937   19.3657   27.4430 C   0  0  0  0  0  0  0  0  0  0  0  0
   19.0673   19.2192   27.7864 H   0  0  0  0  0  0  0  0  0  0  0  0
   20.7849   18.8571   28.1188 H   0  0  0  0  0  0  0  0  0  0  0  0
   20.3253   20.4327   27.4129 H   0  0  0  0  0  0  0  0  0  0  0  0
  1  2  1  0  0  0  0
  1  3  1  0  0  0  0
  1  4  1  0  0  0  0
  4  5  1  0  0  0  0
  4  6  1  0  0  0  0
  4  7  1  0  0  0  0
  7  8  1  0  0  0  0
  7  9  1  0  0  0  0
  7 10  1  0  0  0  0
 10 11  1  0  0  0  0
 10 12  1  0  0  0  0
 10 13  1  0  0  0  0
 13 14  1  0  0  0  0
 13 15  1  0  0  0  0
 13 16  1  0  0  0  0
 16 17  1  0  0  0  0
 16 18  1  0  0  0  0
 16 19  1  0  0  0  0
 19 20  1  0  0  0  0
 19 21  1  0  0  0  0
 19 22  1  0  0  0  0
  1 23  1  0  0  0  0
 23 24  1  0  0  0  0
 23 25  1  0  0  0  0
 23 26  1  0  0  0  0
M  END
> <VM2 Rank>
41

> <Conf_Id>
421

> <Probability>
0.85

> <Sum Probability>
73.17

> <Delta G>
1.253

> <G>
76.719

> <E>
44.389

> <-TS>
32.330

> <U+W>
22.927

> <U>
71.903

> <W>
-48.976

> <W(PB)>
-51.297

> <W(SA)>
2.321

> <Valence>
2.409

> <Coulomb>
69.133

> <VdW>
0.360

> <VdW6>
-6.461

> <VdW12>
6.822

> <Bond>
0.187

> <Angle>
0.708

> <Pdih>
1.514

> <Idih>
0.000

> <Tether>
0.000

$$$$
VeraChem MOL file


 26 25  0  0  0  0  0  0  0  0999 V2000     
   19.4573   19.1254   26.0201 N   0  3  0  0  0  0  0  0  0  0  0  0
   19.2755   18.7979   26.9821 H   0  0  0  0  0  0  0  0  0  0  0  0
   18.5627   19.0039   25.5224 H   0  0  0  0  0  0  0  0  0  0  0  0
   20.5319   18.2588   25.3820 C   0  0  0  0  0  0  0  0  0  0  0  0
   20.2378   17.2160   25.5258 H   0  0  0  0  0  0  0  0  0  0  0  0
   21.4612   18.4247   25.9329 H   0  0  0  0  0  0  0  0  0  0  0  0
   20.7718   18.5095   23.8772 C   0  0  0  0  0  0  0  0  0  0  0  0
   21.1316   19.5353   23.7320 H   0  0  0  0  0  0  0  0  0  0  0  0
   21.5799   17.8465   23.5412 H   0  0  0  0  0  0  0  0  0  0  0  0
   19.5067   18.2522   23.0208 C   0  0  0  0  0  0  0  0  0  0  0  0
   18.7193   18.9695   23.2884 H   0  0  0  0  0  0  0  0  0  0  0  0
   19.1118   17.2546   23.2582 H   0  0  0  0  0  0  0  0  0  0  0  0
   19.7678   18.3272   21.4963 C   0  0  0  0  0  0  0  0  0  0  0  0
   20.5406   17.5973   21.2180 H   0  0  0  0  0  0  0  0  0  0  0  0
   18.8526   18.0214   20.9707 H   0  0  0  0  0  0  0  0  0  0  0  0
   20.1808   19.7362   21.0082 C   0  0  0  0  0  0  0  0  0  0  0  0
   21.1358   20.0307   21.4631 H   0  0  0  0  0  0  0  0  0  0  0  0
   19.4332   20.4746   21.3303 H   0  0  0  0  0  0  0  0  0  0  0  0
   20.3215   19.7880   19.4718 C   0  0  0  0  0  0  0  0  0  0  0  0
   21.0845   19.0808   19.1213 H   0  0  0  0  0  0  0  0  0  0  0  0
   20.6174   20.7928   19.1432 H   0  0  0  0  0  0  0  0  0  0  0  0
   19.3725   19.5390   18.9792 H   0  0  0  0  0  0  0  0  0  0  0  0
   19.8701   20.5927   26.0407 C   0  0  0  0  0  0  0  0  0  0  0  0
   19.9975   20.9463   25.0155 H   0  0  0  0  0  0  0  0  0  0  0  0
   19.0910   21.1762   26.5362 H   0  0  0  0  0  0  0  0  0  0  0  0
   20.8102   20.6931   26.5875 H   0  0  0  0  0  0  0  0  0  0  0  0
  1  2  1  0  0  0  0
  1  3  1  0  0  0  0
  1  4  1  0  0  0  0
  4  5  1  0  0  0  0
  4  6  1  0  0  0  0
  4  7  1  0  0  0  0
  7  8  1  0  0  0  0
  7  9  1  0  0  0  0
  7 10  1  0  0  0  0
 10 11  1  0  0  0  0
 10 12  1  0  0  0  0
 10 13  1  0  0  0  0
 13 14  1  0  0  0  0
 13 15  1  0  0  0  0
 13 16  1  0  0  0  0
 16 17  1  0  0  0  0
 16 18  1  0  0  0  0
 16 19  1  0  0  0  0
 19 20  1  0  0  0  0
 19 21  1  0  0  0  0
 19 22  1  0  0  0  0
  1 23  1  0  0  0  0
 23 24  1  0  0  0  0
 23 25  1  0  0  0  0
 23 26  1  0  0  0  0
M  END
> <VM2 Rank>
42

> <Conf_Id>
843

> <Probability>
0.83

> <Sum Probability>
74.00

> <Delta G>
1.267

> <G>
76.733

> <E>
44.142

> <-TS>
32.591

> <U+W>
22.680

> <U>
72.280

> <W>
-49.600

> <W(PB)>
-51.847

> <W(SA)>
2.248

> <Valence>
2.616

> <Coulomb>
69.198

> <VdW>
0.465

> <VdW6>
-7.469

> <VdW12>
7.934

> <Bond>
0.224

> <Angle>
0.811

> <Pdih>
1.581

> <Idih>
0.000

> <Tether>
0.000

$$$$
VeraChem MOL file


 26 25  0  0  0  0  0  0  0  0999 V2000     
   19.0959   19.0205   25.8132 N   0  3  0  0  0  0  0  0  0  0  0  0
   18.4904   18.5546   26.5076 H   0  0  0  0  0  0  0  0  0  0  0  0
   18.4571   19.3284   25.0649 H   0  0  0  0  0  0  0  0  0  0  0  0
   20.1020   18.0213   25.2634 C   0  0  0  0  0  0  0  0  0  0  0  0
   19.5440   17.1347   24.9514 H   0  0  0  0  0  0  0  0  0  0  0  0
   20.7618   17.7308   26.0848 H   0  0  0  0  0  0  0  0  0  0  0  0
   20.9492   18.5248   24.0743 C   0  0  0  0  0  0  0  0  0  0  0  0
   21.5611   19.3799   24.3891 H   0  0  0  0  0  0  0  0  0  0  0  0
   21.6520   17.7302   23.7906 H   0  0  0  0  0  0  0  0  0  0  0  0
   20.0901   18.9106   22.8467 C   0  0  0  0  0  0  0  0  0  0  0  0
   19.4157   19.7365   23.1093 H   0  0  0  0  0  0  0  0  0  0  0  0
   19.4591   18.0564   22.5677 H   0  0  0  0  0  0  0  0  0  0  0  0
   20.9673   19.3332   21.6437 C   0  0  0  0  0  0  0  0  0  0  0  0
   21.6457   20.1378   21.9595 H   0  0  0  0  0  0  0  0  0  0  0  0
   21.6060   18.4934   21.3369 H   0  0  0  0  0  0  0  0  0  0  0  0
   20.1487   19.8303   20.4274 C   0  0  0  0  0  0  0  0  0  0  0  0
   20.8445   20.2054   19.6639 H   0  0  0  0  0  0  0  0  0  0  0  0
   19.5266   20.6867   20.7228 H   0  0  0  0  0  0  0  0  0  0  0  0
   19.2593   18.7352   19.7956 C   0  0  0  0  0  0  0  0  0  0  0  0
   18.4669   18.4127   20.4823 H   0  0  0  0  0  0  0  0  0  0  0  0
   19.8537   17.8550   19.5179 H   0  0  0  0  0  0  0  0  0  0  0  0
   18.7737   19.1122   18.8862 H   0  0  0  0  0  0  0  0  0  0  0  0
   19.7956   20.2142   26.4528 C   0  0  0  0  0  0  0  0  0  0  0  0
   20.3830   20.7368   25.6951 H   0  0  0  0  0  0  0  0  0  0  0  0
   19.0435   20.8904   26.8653 H   0  0  0  0  0  0  0  0  0  0  0  0
   20.4510   19.8601   27.2514 H   0  0  0  0  0  0  0  0  0  0  0  0
  1  2  1  0  0  0  0
  1  3  1  0  0  0  0
  1  4  1  0  0  0  0
  4  5  1  0  0  0  0
  4  6  1  0  0  0  0
  4  7  1  0  0  0  0
  7  8  1  0  0  0  0
  7  9  1  0  0  0  0
  7 10  1  0  0  0  0
 10 11  1  0  0  0  0
 10 12  1  0  0  0  0
 10 13  1  0  0  0  0
 13 14  1  0  0  0  0
 13 15  1  0  0  0  0
 13 16  1  0  0  0  0
 16 17  1  0  0  0  0
 16 18  1  0  0  0  0
 16 19  1  0  0  0  0
 19 20  1  0  0  0  0
 19 21  1  0  0  0  0
 19 22  1  0  0  0  0
  1 23  1  0  0  0  0
 23 24  1  0  0  0  0
 23 25  1  0  0  0  0
 23 26  1  0  0  0  0
M  END
> <VM2 Rank>
43

> <Conf_Id>
1362

> <Probability>
0.82

> <Sum Probability>
74.82

> <Delta G>
1.273

> <G>
76.739

> <E>
44.148

> <-TS>
32.591

> <U+W>
22.686

> <U>
72.183

> <W>
-49.497

> <W(PB)>
-51.755

> <W(SA)>
2.258

> <Valence>
2.592

> <Coulomb>
69.072

> <VdW>
0.519

> <VdW6>
-7.379

> <VdW12>
7.898

> <Bond>
0.219

> <Angle>
0.818

> <Pdih>
1.555

> <Idih>
0.000

> <Tether>
0.000

$$$$
VeraChem MOL file


 26 25  0  0  0  0  0  0  0  0999 V2000     
   19.3150   19.6935   25.7465 N   0  3  0  0  0  0  0  0  0  0  0  0
   18.7436   20.0316   24.9579 H   0  0  0  0  0  0  0  0  0  0  0  0
   19.1479   20.3703   26.5080 H   0  0  0  0  0  0  0  0  0  0  0  0
   20.7881   19.7065   25.3684 C   0  0  0  0  0  0  0  0  0  0  0  0
   21.3529   19.3362   26.2277 H   0  0  0  0  0  0  0  0  0  0  0  0
   21.0731   20.7487   25.2033 H   0  0  0  0  0  0  0  0  0  0  0  0
   21.1556   18.8817   24.1154 C   0  0  0  0  0  0  0  0  0  0  0  0
   22.2417   18.9459   23.9675 H   0  0  0  0  0  0  0  0  0  0  0  0
   20.9300   17.8214   24.2880 H   0  0  0  0  0  0  0  0  0  0  0  0
   20.4338   19.3752   22.8389 C   0  0  0  0  0  0  0  0  0  0  0  0
   20.6437   20.4434   22.6891 H   0  0  0  0  0  0  0  0  0  0  0  0
   19.3492   19.2765   22.9723 H   0  0  0  0  0  0  0  0  0  0  0  0
   20.8767   18.5808   21.5866 C   0  0  0  0  0  0  0  0  0  0  0  0
   21.9708   18.6305   21.4978 H   0  0  0  0  0  0  0  0  0  0  0  0
   20.6254   17.5187   21.7135 H   0  0  0  0  0  0  0  0  0  0  0  0
   20.2534   19.1054   20.2703 C   0  0  0  0  0  0  0  0  0  0  0  0
   20.7000   18.5598   19.4272 H   0  0  0  0  0  0  0  0  0  0  0  0
   20.5203   20.1620   20.1277 H   0  0  0  0  0  0  0  0  0  0  0  0
   18.7172   18.9443   20.2095 C   0  0  0  0  0  0  0  0  0  0  0  0
   18.2156   19.5709   20.9572 H   0  0  0  0  0  0  0  0  0  0  0  0
   18.4223   17.9009   20.3805 H   0  0  0  0  0  0  0  0  0  0  0  0
   18.3387   19.2423   19.2232 H   0  0  0  0  0  0  0  0  0  0  0  0
   18.8682   18.3025   26.1814 C   0  0  0  0  0  0  0  0  0  0  0  0
   19.4782   17.9780   27.0272 H   0  0  0  0  0  0  0  0  0  0  0  0
   17.8176   18.3409   26.4777 H   0  0  0  0  0  0  0  0  0  0  0  0
   18.9895   17.6074   25.3482 H   0  0  0  0  0  0  0  0  0  0  0  0
  1  2  1  0  0  0  0
  1  3  1  0  0  0  0
  1  4  1  0  0  0  0
  4  5  1  0  0  0  0
  4  6  1  0  0  0  0
  4  7  1  0  0  0  0
  7  8  1  0  0  0  0
  7  9  1  0  0  0  0
  7 10  1  0  0  0  0
 10 11  1  0  0  0  0
 10 12  1  0  0  0  0
 10 13  1  0  0  0  0
 13 14  1  0  0  0  0
 13 15  1  0  0  0  0
 13 16  1  0  0  0  0
 16 17  1  0  0  0  0
 16 18  1  0  0  0  0
 16 19  1  0  0  0  0
 19 20  1  0  0  0  0
 19 21  1  0  0  0  0
 19 22  1  0  0  0  0
  1 23  1  0  0  0  0
 23 24  1  0  0  0  0
 23 25  1  0  0  0  0
 23 26  1  0  0  0  0
M  END
> <VM2 Rank>
44

> <Conf_Id>
1291

> <Probability>
0.80

> <Sum Probability>
75.61

> <Delta G>
1.289

> <G>
76.755

> <E>
44.169

> <-TS>
32.585

> <U+W>
22.707

> <U>
72.301

> <W>
-49.593

> <W(PB)>
-51.856

> <W(SA)>
2.262

> <Valence>
2.588

> <Coulomb>
69.201

> <VdW>
0.511

> <VdW6>
-7.408

> <VdW12>
7.919

> <Bond>
0.221

> <Angle>
0.820

> <Pdih>
1.547

> <Idih>
0.000

> <Tether>
0.000

$$$$
VeraChem MOL file


 26 25  0  0  0  0  0  0  0  0999 V2000     
   20.4295   19.2242   26.0544 N   0  3  0  0  0  0  0  0  0  0  0  0
   21.3629   19.2880   25.6213 H   0  0  0  0  0  0  0  0  0  0  0  0
   20.6056   18.9329   27.0291 H   0  0  0  0  0  0  0  0  0  0  0  0
   19.5978   18.1642   25.3490 C   0  0  0  0  0  0  0  0  0  0  0  0
   18.6179   18.1366   25.8323 H   0  0  0  0  0  0  0  0  0  0  0  0
   20.0841   17.2005   25.5205 H   0  0  0  0  0  0  0  0  0  0  0  0
   19.4184   18.3722   23.8293 C   0  0  0  0  0  0  0  0  0  0  0  0
   18.7849   17.5632   23.4424 H   0  0  0  0  0  0  0  0  0  0  0  0
   18.8716   19.3062   23.6519 H   0  0  0  0  0  0  0  0  0  0  0  0
   20.7662   18.3793   23.0653 C   0  0  0  0  0  0  0  0  0  0  0  0
   21.3351   17.4791   23.3367 H   0  0  0  0  0  0  0  0  0  0  0  0
   21.3735   19.2376   23.3824 H   0  0  0  0  0  0  0  0  0  0  0  0
   20.6026   18.4115   21.5258 C   0  0  0  0  0  0  0  0  0  0  0  0
   21.5950   18.2984   21.0677 H   0  0  0  0  0  0  0  0  0  0  0  0
   20.0126   17.5440   21.1992 H   0  0  0  0  0  0  0  0  0  0  0  0
   19.9518   19.7132   21.0002 C   0  0  0  0  0  0  0  0  0  0  0  0
   20.5124   20.5836   21.3686 H   0  0  0  0  0  0  0  0  0  0  0  0
   18.9278   19.8078   21.3852 H   0  0  0  0  0  0  0  0  0  0  0  0
   19.9113   19.7468   19.4574 C   0  0  0  0  0  0  0  0  0  0  0  0
   20.9229   19.6957   19.0341 H   0  0  0  0  0  0  0  0  0  0  0  0
   19.4444   20.6746   19.1020 H   0  0  0  0  0  0  0  0  0  0  0  0
   19.3312   18.9040   19.0594 H   0  0  0  0  0  0  0  0  0  0  0  0
   19.7305   20.5787   26.0356 C   0  0  0  0  0  0  0  0  0  0  0  0
   19.6068   20.9068   25.0016 H   0  0  0  0  0  0  0  0  0  0  0  0
   18.7535   20.4847   26.5147 H   0  0  0  0  0  0  0  0  0  0  0  0
   20.3402   21.3030   26.5803 H   0  0  0  0  0  0  0  0  0  0  0  0
  1  2  1  0  0  0  0
  1  3  1  0  0  0  0
  1  4  1  0  0  0  0
  4  5  1  0  0  0  0
  4  6  1  0  0  0  0
  4  7  1  0  0  0  0
  7  8  1  0  0  0  0
  7  9  1  0  0  0  0
  7 10  1  0  0  0  0
 10 11  1  0  0  0  0
 10 12  1  0  0  0  0
 10 13  1  0  0  0  0
 13 14  1  0  0  0  0
 13 15  1  0  0  0  0
 13 16  1  0  0  0  0
 16 17  1  0  0  0  0
 16 18  1  0  0  0  0
 16 19  1  0  0  0  0
 19 20  1  0  0  0  0
 19 21  1  0  0  0  0
 19 22  1  0  0  0  0
  1 23  1  0  0  0  0
 23 24  1  0  0  0  0
 23 25  1  0  0  0  0
 23 26  1  0  0  0  0
M  END
> <VM2 Rank>
45

> <Conf_Id>
491

> <Probability>
0.79

> <Sum Probability>
76.40

> <Delta G>
1.293

> <G>
76.759

> <E>
44.168

> <-TS>
32.591

> <U+W>
22.707

> <U>
72.280

> <W>
-49.573

> <W(PB)>
-51.820

> <W(SA)>
2.246

> <Valence>
2.616

> <Coulomb>
69.199

> <VdW>
0.465

> <VdW6>
-7.468

> <VdW12>
7.934

> <Bond>
0.224

> <Angle>
0.811

> <Pdih>
1.582

> <Idih>
0.000

> <Tether>
0.000

$$$$
VeraChem MOL file


 26 25  0  0  0  0  0  0  0  0999 V2000     
   19.7802   18.4758   26.0479 N   0  3  0  0  0  0  0  0  0  0  0  0
   20.6696   17.9778   26.2084 H   0  0  0  0  0  0  0  0  0  0  0  0
   19.1074   17.7496   25.7568 H   0  0  0  0  0  0  0  0  0  0  0  0
   19.9481   19.5046   24.9478 C   0  0  0  0  0  0  0  0  0  0  0  0
   20.6719   20.2478   25.2916 H   0  0  0  0  0  0  0  0  0  0  0  0
   18.9856   20.0020   24.8042 H   0  0  0  0  0  0  0  0  0  0  0  0
   20.4217   18.8984   23.6144 C   0  0  0  0  0  0  0  0  0  0  0  0
   21.3810   18.3861   23.7662 H   0  0  0  0  0  0  0  0  0  0  0  0
   19.6972   18.1414   23.2887 H   0  0  0  0  0  0  0  0  0  0  0  0
   20.5789   19.9860   22.5258 C   0  0  0  0  0  0  0  0  0  0  0  0
   21.2465   20.7735   22.9023 H   0  0  0  0  0  0  0  0  0  0  0  0
   19.6113   20.4729   22.3447 H   0  0  0  0  0  0  0  0  0  0  0  0
   21.1601   19.4499   21.1916 C   0  0  0  0  0  0  0  0  0  0  0  0
   21.2752   20.2913   20.4944 H   0  0  0  0  0  0  0  0  0  0  0  0
   22.1748   19.0688   21.3715 H   0  0  0  0  0  0  0  0  0  0  0  0
   20.3248   18.3401   20.5031 C   0  0  0  0  0  0  0  0  0  0  0  0
   20.2989   17.4393   21.1308 H   0  0  0  0  0  0  0  0  0  0  0  0
   20.8345   18.0441   19.5756 H   0  0  0  0  0  0  0  0  0  0  0  0
   18.8831   18.7787   20.1598 C   0  0  0  0  0  0  0  0  0  0  0  0
   18.2949   18.9726   21.0654 H   0  0  0  0  0  0  0  0  0  0  0  0
   18.3668   17.9932   19.5929 H   0  0  0  0  0  0  0  0  0  0  0  0
   18.8829   19.6898   19.5474 H   0  0  0  0  0  0  0  0  0  0  0  0
   19.3112   19.1564   27.3265 C   0  0  0  0  0  0  0  0  0  0  0  0
   19.1944   18.4047   28.1103 H   0  0  0  0  0  0  0  0  0  0  0  0
   20.0539   19.8963   27.6327 H   0  0  0  0  0  0  0  0  0  0  0  0
   18.3536   19.6479   27.1412 H   0  0  0  0  0  0  0  0  0  0  0  0
  1  2  1  0  0  0  0
  1  3  1  0  0  0  0
  1  4  1  0  0  0  0
  4  5  1  0  0  0  0
  4  6  1  0  0  0  0
  4  7  1  0  0  0  0
  7  8  1  0  0  0  0
  7  9  1  0  0  0  0
  7 10  1  0  0  0  0
 10 11  1  0  0  0  0
 10 12  1  0  0  0  0
 10 13  1  0  0  0  0
 13 14  1  0  0  0  0
 13 15  1  0  0  0  0
 13 16  1  0  0  0  0
 16 17  1  0  0  0  0
 16 18  1  0  0  0  0
 16 19  1  0  0  0  0
 19 20  1  0  0  0  0
 19 21  1  0  0  0  0
 19 22  1  0  0  0  0
  1 23  1  0  0  0  0
 23 24  1  0  0  0  0
 23 25  1  0  0  0  0
 23 26  1  0  0  0  0
M  END
> <VM2 Rank>
46

> <Conf_Id>
202

> <Probability>
0.77

> <Sum Probability>
77.18

> <Delta G>
1.308

> <G>
76.774

> <E>
44.186

> <-TS>
32.588

> <U+W>
22.724

> <U>
71.870

> <W>
-49.146

> <W(PB)>
-51.406

> <W(SA)>
2.260

> <Valence>
2.682

> <Coulomb>
68.933

> <VdW>
0.255

> <VdW6>
-6.832

> <VdW12>
7.088

> <Bond>
0.205

> <Angle>
1.003

> <Pdih>
1.473

> <Idih>
0.000

> <Tether>
0.000

$$$$
VeraChem MOL file


 26 25  0  0  0  0  0  0  0  0999 V2000     
   19.6732   18.4757   26.2512 N   0  3  0  0  0  0  0  0  0  0  0  0
   20.5157   18.0097   26.6221 H   0  0  0  0  0  0  0  0  0  0  0  0
   18.8820   17.9079   26.5942 H   0  0  0  0  0  0  0  0  0  0  0  0
   19.6899   18.4600   24.7319 C   0  0  0  0  0  0  0  0  0  0  0  0
   18.8049   18.9970   24.3824 H   0  0  0  0  0  0  0  0  0  0  0  0
   19.6012   17.4173   24.4164 H   0  0  0  0  0  0  0  0  0  0  0  0
   20.9598   19.0684   24.0996 C   0  0  0  0  0  0  0  0  0  0  0  0
   21.0461   20.1273   24.3754 H   0  0  0  0  0  0  0  0  0  0  0  0
   21.8431   18.5633   24.5122 H   0  0  0  0  0  0  0  0  0  0  0  0
   20.9778   18.9347   22.5587 C   0  0  0  0  0  0  0  0  0  0  0  0
   20.9311   17.8710   22.2900 H   0  0  0  0  0  0  0  0  0  0  0  0
   21.9398   19.3097   22.1830 H   0  0  0  0  0  0  0  0  0  0  0  0
   19.8246   19.7090   21.8714 C   0  0  0  0  0  0  0  0  0  0  0  0
   18.8558   19.2816   22.1631 H   0  0  0  0  0  0  0  0  0  0  0  0
   19.8256   20.7476   22.2301 H   0  0  0  0  0  0  0  0  0  0  0  0
   19.9293   19.7228   20.3271 C   0  0  0  0  0  0  0  0  0  0  0  0
   20.8830   20.1763   20.0228 H   0  0  0  0  0  0  0  0  0  0  0  0
   19.1389   20.3724   19.9256 H   0  0  0  0  0  0  0  0  0  0  0  0
   19.7936   18.3209   19.6903 C   0  0  0  0  0  0  0  0  0  0  0  0
   19.7852   18.3956   18.5952 H   0  0  0  0  0  0  0  0  0  0  0  0
   18.8596   17.8348   20.0004 H   0  0  0  0  0  0  0  0  0  0  0  0
   20.6302   17.6685   19.9694 H   0  0  0  0  0  0  0  0  0  0  0  0
   19.5599   19.8985   26.7869 C   0  0  0  0  0  0  0  0  0  0  0  0
   19.5144   19.8668   27.8778 H   0  0  0  0  0  0  0  0  0  0  0  0
   20.4330   20.4740   26.4728 H   0  0  0  0  0  0  0  0  0  0  0  0
   18.6510   20.3587   26.3933 H   0  0  0  0  0  0  0  0  0  0  0  0
  1  2  1  0  0  0  0
  1  3  1  0  0  0  0
  1  4  1  0  0  0  0
  4  5  1  0  0  0  0
  4  6  1  0  0  0  0
  4  7  1  0  0  0  0
  7  8  1  0  0  0  0
  7  9  1  0  0  0  0
  7 10  1  0  0  0  0
 10 11  1  0  0  0  0
 10 12  1  0  0  0  0
 10 13  1  0  0  0  0
 13 14  1  0  0  0  0
 13 15  1  0  0  0  0
 13 16  1  0  0  0  0
 16 17  1  0  0  0  0
 16 18  1  0  0  0  0
 16 19  1  0  0  0  0
 19 20  1  0  0  0  0
 19 21  1  0  0  0  0
 19 22  1  0  0  0  0
  1 23  1  0  0  0  0
 23 24  1  0  0  0  0
 23 25  1  0  0  0  0
 23 26  1  0  0  0  0
M  END
> <VM2 Rank>
47

> <Conf_Id>
767

> <Probability>
0.76

> <Sum Probability>
77.94

> <Delta G>
1.315

> <G>
76.781

> <E>
44.237

> <-TS>
32.544

> <U+W>
22.775

> <U>
72.114

> <W>
-49.339

> <W(PB)>
-51.571

> <W(SA)>
2.232

> <Valence>
2.783

> <Coulomb>
68.782

> <VdW>
0.549

> <VdW6>
-7.241

> <VdW12>
7.790

> <Bond>
0.221

> <Angle>
0.803

> <Pdih>
1.759

> <Idih>
0.000

> <Tether>
0.000

$$$$
VeraChem MOL file


 26 25  0  0  0  0  0  0  0  0999 V2000     
   20.2434   18.5232   26.0643 N   0  3  0  0  0  0  0  0  0  0  0  0
   21.0678   17.9502   25.8263 H   0  0  0  0  0  0  0  0  0  0  0  0
   19.4641   17.8544   26.1656 H   0  0  0  0  0  0  0  0  0  0  0  0
   19.9483   19.5046   24.9479 C   0  0  0  0  0  0  0  0  0  0  0  0
   20.7979   20.1875   24.8684 H   0  0  0  0  0  0  0  0  0  0  0  0
   19.0668   20.0835   25.2348 H   0  0  0  0  0  0  0  0  0  0  0  0
   19.7016   18.8248   23.5889 C   0  0  0  0  0  0  0  0  0  0  0  0
   20.5853   18.2323   23.3201 H   0  0  0  0  0  0  0  0  0  0  0  0
   18.8576   18.1280   23.6768 H   0  0  0  0  0  0  0  0  0  0  0  0
   19.4045   19.8659   22.4842 C   0  0  0  0  0  0  0  0  0  0  0  0
   20.2639   20.5397   22.3678 H   0  0  0  0  0  0  0  0  0  0  0  0
   18.5668   20.4994   22.8074 H   0  0  0  0  0  0  0  0  0  0  0  0
   19.0384   19.2330   21.1165 C   0  0  0  0  0  0  0  0  0  0  0  0
   18.1117   18.6533   21.2276 H   0  0  0  0  0  0  0  0  0  0  0  0
   18.8047   20.0387   20.4069 H   0  0  0  0  0  0  0  0  0  0  0  0
   20.1269   18.3199   20.4961 C   0  0  0  0  0  0  0  0  0  0  0  0
   19.7538   17.9336   19.5373 H   0  0  0  0  0  0  0  0  0  0  0  0
   20.2904   17.4385   21.1305 H   0  0  0  0  0  0  0  0  0  0  0  0
   21.4706   19.0434   20.2514 C   0  0  0  0  0  0  0  0  0  0  0  0
   22.1734   18.3825   19.7276 H   0  0  0  0  0  0  0  0  0  0  0  0
   21.9426   19.3456   21.1945 H   0  0  0  0  0  0  0  0  0  0  0  0
   21.3294   19.9400   19.6341 H   0  0  0  0  0  0  0  0  0  0  0  0
   20.4742   19.2753   27.3677 C   0  0  0  0  0  0  0  0  0  0  0  0
   19.5775   19.8474   27.6159 H   0  0  0  0  0  0  0  0  0  0  0  0
   20.6855   18.5572   28.1632 H   0  0  0  0  0  0  0  0  0  0  0  0
   21.3232   19.9518   27.2465 H   0  0  0  0  0  0  0  0  0  0  0  0
  1  2  1  0  0  0  0
  1  3  1  0  0  0  0
  1  4  1  0  0  0  0
  4  5  1  0  0  0  0
  4  6  1  0  0  0  0
  4  7  1  0  0  0  0
  7  8  1  0  0  0  0
  7  9  1  0  0  0  0
  7 10  1  0  0  0  0
 10 11  1  0  0  0  0
 10 12  1  0  0  0  0
 10 13  1  0  0  0  0
 13 14  1  0  0  0  0
 13 15  1  0  0  0  0
 13 16  1  0  0  0  0
 16 17  1  0  0  0  0
 16 18  1  0  0  0  0
 16 19  1  0  0  0  0
 19 20  1  0  0  0  0
 19 21  1  0  0  0  0
 19 22  1  0  0  0  0
  1 23  1  0  0  0  0
 23 24  1  0  0  0  0
 23 25  1  0  0  0  0
 23 26  1  0  0  0  0
M  END
> <VM2 Rank>
48

> <Conf_Id>
1385

> <Probability>
0.74

> <Sum Probability>
78.67

> <Delta G>
1.336

> <G>
76.802

> <E>
44.214

> <-TS>
32.588

> <U+W>
22.752

> <U>
71.870

> <W>
-49.118

> <W(PB)>
-51.408

> <W(SA)>
2.290

> <Valence>
2.682

> <Coulomb>
68.933

> <VdW>
0.255

> <VdW6>
-6.832

> <VdW12>
7.088

> <Bond>
0.205

> <Angle>
1.003

> <Pdih>
1.474

> <Idih>
0.000

> <Tether>
0.000

$$$$
VeraChem MOL file


 26 25  0  0  0  0  0  0  0  0999 V2000     
   19.4263   19.0842   26.1424 N   0  3  0  0  0  0  0  0  0  0  0  0
   18.7715   18.4070   25.7238 H   0  0  0  0  0  0  0  0  0  0  0  0
   18.9188   19.4850   26.9472 H   0  0  0  0  0  0  0  0  0  0  0  0
   19.7488   20.1860   25.1448 C   0  0  0  0  0  0  0  0  0  0  0  0
   20.4494   20.8723   25.6272 H   0  0  0  0  0  0  0  0  0  0  0  0
   18.8225   20.7331   24.9519 H   0  0  0  0  0  0  0  0  0  0  0  0
   20.3390   19.7093   23.7993 C   0  0  0  0  0  0  0  0  0  0  0  0
   20.5687   20.5990   23.2005 H   0  0  0  0  0  0  0  0  0  0  0  0
   21.2942   19.1972   23.9724 H   0  0  0  0  0  0  0  0  0  0  0  0
   19.3746   18.7832   23.0162 C   0  0  0  0  0  0  0  0  0  0  0  0
   18.4296   19.3098   22.8234 H   0  0  0  0  0  0  0  0  0  0  0  0
   19.1227   17.9132   23.6368 H   0  0  0  0  0  0  0  0  0  0  0  0
   19.9619   18.2655   21.6798 C   0  0  0  0  0  0  0  0  0  0  0  0
   20.9039   17.7337   21.8728 H   0  0  0  0  0  0  0  0  0  0  0  0
   19.2696   17.5220   21.2612 H   0  0  0  0  0  0  0  0  0  0  0  0
   20.1960   19.3784   20.6304 C   0  0  0  0  0  0  0  0  0  0  0  0
   20.9485   20.0909   20.9931 H   0  0  0  0  0  0  0  0  0  0  0  0
   19.2672   19.9457   20.4773 H   0  0  0  0  0  0  0  0  0  0  0  0
   20.6682   18.7973   19.2805 C   0  0  0  0  0  0  0  0  0  0  0  0
   21.6120   18.2484   19.3956 H   0  0  0  0  0  0  0  0  0  0  0  0
   20.8324   19.5995   18.5493 H   0  0  0  0  0  0  0  0  0  0  0  0
   19.9214   18.1095   18.8630 H   0  0  0  0  0  0  0  0  0  0  0  0
   20.6931   18.3860   26.6236 C   0  0  0  0  0  0  0  0  0  0  0  0
   21.3591   19.1235   27.0768 H   0  0  0  0  0  0  0  0  0  0  0  0
   20.4245   17.6281   27.3628 H   0  0  0  0  0  0  0  0  0  0  0  0
   21.1884   17.9111   25.7743 H   0  0  0  0  0  0  0  0  0  0  0  0
  1  2  1  0  0  0  0
  1  3  1  0  0  0  0
  1  4  1  0  0  0  0
  4  5  1  0  0  0  0
  4  6  1  0  0  0  0
  4  7  1  0  0  0  0
  7  8  1  0  0  0  0
  7  9  1  0  0  0  0
  7 10  1  0  0  0  0
 10 11  1  0  0  0  0
 10 12  1  0  0  0  0
 10 13  1  0  0  0  0
 13 14  1  0  0  0  0
 13 15  1  0  0  0  0
 13 16  1  0  0  0  0
 16 17  1  0  0  0  0
 16 18  1  0  0  0  0
 16 19  1  0  0  0  0
 19 20  1  0  0  0  0
 19 21  1  0  0  0  0
 19 22  1  0  0  0  0
  1 23  1  0  0  0  0
 23 24  1  0  0  0  0
 23 25  1  0  0  0  0
 23 26  1  0  0  0  0
M  END
> <VM2 Rank>
49

> <Conf_Id>
1223

> <Probability>
0.73

> <Sum Probability>
79.41

> <Delta G>
1.337

> <G>
76.803

> <E>
44.254

> <-TS>
32.549

> <U+W>
22.792

> <U>
72.239

> <W>
-49.446

> <W(PB)>
-51.686

> <W(SA)>
2.239

> <Valence>
2.659

> <Coulomb>
69.025

> <VdW>
0.555

> <VdW6>
-7.358

> <VdW12>
7.913

> <Bond>
0.229

> <Angle>
0.883

> <Pdih>
1.546

> <Idih>
0.000

> <Tether>
0.000

$$$$
VeraChem MOL file


 26 25  0  0  0  0  0  0  0  0999 V2000     
   20.3478   18.8956   26.0772 N   0  3  0  0  0  0  0  0  0  0  0  0
   21.0116   18.2763   26.5687 H   0  0  0  0  0  0  0  0  0  0  0  0
   19.4924   18.8801   26.6537 H   0  0  0  0  0  0  0  0  0  0  0  0
   20.0597   18.3370   24.6940 C   0  0  0  0  0  0  0  0  0  0  0  0
   19.8225   17.2768   24.8132 H   0  0  0  0  0  0  0  0  0  0  0  0
   20.9763   18.4161   24.1046 H   0  0  0  0  0  0  0  0  0  0  0  0
   18.8969   19.0305   23.9531 C   0  0  0  0  0  0  0  0  0  0  0  0
   17.9966   18.9882   24.5802 H   0  0  0  0  0  0  0  0  0  0  0  0
   19.1217   20.0947   23.8115 H   0  0  0  0  0  0  0  0  0  0  0  0
   18.5851   18.3739   22.5851 C   0  0  0  0  0  0  0  0  0  0  0  0
   17.7529   18.9134   22.1122 H   0  0  0  0  0  0  0  0  0  0  0  0
   18.2229   17.3506   22.7558 H   0  0  0  0  0  0  0  0  0  0  0  0
   19.7815   18.3200   21.5997 C   0  0  0  0  0  0  0  0  0  0  0  0
   20.5798   17.6884   22.0121 H   0  0  0  0  0  0  0  0  0  0  0  0
   19.4486   17.8221   20.6785 H   0  0  0  0  0  0  0  0  0  0  0  0
   20.3523   19.7125   21.2405 C   0  0  0  0  0  0  0  0  0  0  0  0
   20.7616   20.1971   22.1370 H   0  0  0  0  0  0  0  0  0  0  0  0
   19.5457   20.3594   20.8681 H   0  0  0  0  0  0  0  0  0  0  0  0
   21.4638   19.6146   20.1738 C   0  0  0  0  0  0  0  0  0  0  0  0
   21.8590   20.6100   19.9332 H   0  0  0  0  0  0  0  0  0  0  0  0
   21.0825   19.1706   19.2450 H   0  0  0  0  0  0  0  0  0  0  0  0
   22.2992   18.9977   20.5298 H   0  0  0  0  0  0  0  0  0  0  0  0
   20.9208   20.3059   25.9935 C   0  0  0  0  0  0  0  0  0  0  0  0
   20.1863   20.9683   25.5312 H   0  0  0  0  0  0  0  0  0  0  0  0
   21.1497   20.6586   27.0016 H   0  0  0  0  0  0  0  0  0  0  0  0
   21.8333   20.2873   25.3936 H   0  0  0  0  0  0  0  0  0  0  0  0
  1  2  1  0  0  0  0
  1  3  1  0  0  0  0
  1  4  1  0  0  0  0
  4  5  1  0  0  0  0
  4  6  1  0  0  0  0
  4  7  1  0  0  0  0
  7  8  1  0  0  0  0
  7  9  1  0  0  0  0
  7 10  1  0  0  0  0
 10 11  1  0  0  0  0
 10 12  1  0  0  0  0
 10 13  1  0  0  0  0
 13 14  1  0  0  0  0
 13 15  1  0  0  0  0
 13 16  1  0  0  0  0
 16 17  1  0  0  0  0
 16 18  1  0  0  0  0
 16 19  1  0  0  0  0
 19 20  1  0  0  0  0
 19 21  1  0  0  0  0
 19 22  1  0  0  0  0
  1 23  1  0  0  0  0
 23 24  1  0  0  0  0
 23 25  1  0  0  0  0
 23 26  1  0  0  0  0
M  END
> <VM2 Rank>
50

> <Conf_Id>
784

> <Probability>
0.73

> <Sum Probability>
80.14

> <Delta G>
1.339

> <G>
76.805

> <E>
44.136

> <-TS>
32.669

> <U+W>
22.674

> <U>
72.352

> <W>
-49.678

> <W(PB)>
-51.913

> <W(SA)>
2.235

> <Valence>
2.742

> <Coulomb>
69.270

> <VdW>
0.339

> <VdW6>
-7.703

> <VdW12>
8.042

> <Bond>
0.229

> <Angle>
0.954

> <Pdih>
1.560

> <Idih>
0.000

> <Tether>
0.000

$$$$
VeraChem MOL file


 26 25  0  0  0  0  0  0  0  0999 V2000     
   19.6014   18.8200   26.0508 N   0  3  0  0  0  0  0  0  0  0  0  0
   20.4000   18.9722   26.6859 H   0  0  0  0  0  0  0  0  0  0  0  0
   19.0424   18.0767   26.4990 H   0  0  0  0  0  0  0  0  0  0  0  0
   20.0918   18.3403   24.6952 C   0  0  0  0  0  0  0  0  0  0  0  0
   19.2215   18.2381   24.0425 H   0  0  0  0  0  0  0  0  0  0  0  0
   20.5278   17.3483   24.8383 H   0  0  0  0  0  0  0  0  0  0  0  0
   21.1410   19.2580   24.0327 C   0  0  0  0  0  0  0  0  0  0  0  0
   20.7179   20.2565   23.8681 H   0  0  0  0  0  0  0  0  0  0  0  0
   21.9853   19.3926   24.7215 H   0  0  0  0  0  0  0  0  0  0  0  0
   21.6731   18.6870   22.6946 C   0  0  0  0  0  0  0  0  0  0  0  0
   22.2202   17.7559   22.8975 H   0  0  0  0  0  0  0  0  0  0  0  0
   22.4114   19.3856   22.2773 H   0  0  0  0  0  0  0  0  0  0  0  0
   20.5838   18.4014   21.6281 C   0  0  0  0  0  0  0  0  0  0  0  0
   21.0735   17.9868   20.7361 H   0  0  0  0  0  0  0  0  0  0  0  0
   19.9014   17.6196   21.9880 H   0  0  0  0  0  0  0  0  0  0  0  0
   19.7721   19.6537   21.2199 C   0  0  0  0  0  0  0  0  0  0  0  0
   20.4567   20.4518   20.9005 H   0  0  0  0  0  0  0  0  0  0  0  0
   19.2122   20.0400   22.0821 H   0  0  0  0  0  0  0  0  0  0  0  0
   18.7804   19.3425   20.0787 C   0  0  0  0  0  0  0  0  0  0  0  0
   18.0627   18.5682   20.3796 H   0  0  0  0  0  0  0  0  0  0  0  0
   19.3071   18.9906   19.1821 H   0  0  0  0  0  0  0  0  0  0  0  0
   18.2115   20.2403   19.8039 H   0  0  0  0  0  0  0  0  0  0  0  0
   18.7645   20.0873   25.9170 C   0  0  0  0  0  0  0  0  0  0  0  0
   17.9186   19.8903   25.2547 H   0  0  0  0  0  0  0  0  0  0  0  0
   18.3995   20.3799   26.9041 H   0  0  0  0  0  0  0  0  0  0  0  0
   19.3818   20.8867   25.5026 H   0  0  0  0  0  0  0  0  0  0  0  0
  1  2  1  0  0  0  0
  1  3  1  0  0  0  0
  1  4  1  0  0  0  0
  4  5  1  0  0  0  0
  4  6  1  0  0  0  0
  4  7  1  0  0  0  0
  7  8  1  0  0  0  0
  7  9  1  0  0  0  0
  7 10  1  0  0  0  0
 10 11  1  0  0  0  0
 10 12  1  0  0  0  0
 10 13  1  0  0  0  0
 13 14  1  0  0  0  0
 13 15  1  0  0  0  0
 13 16  1  0  0  0  0
 16 17  1  0  0  0  0
 16 18  1  0  0  0  0
 16 19  1  0  0  0  0
 19 20  1  0  0  0  0
 19 21  1  0  0  0  0
 19 22  1  0  0  0  0
  1 23  1  0  0  0  0
 23 24  1  0  0  0  0
 23 25  1  0  0  0  0
 23 26  1  0  0  0  0
M  END
> <VM2 Rank>
51

> <Conf_Id>
283

> <Probability>
0.72

> <Sum Probability>
80.86

> <Delta G>
1.350

> <G>
76.816

> <E>
44.147

> <-TS>
32.669

> <U+W>
22.685

> <U>
72.352

> <W>
-49.667

> <W(PB)>
-51.903

> <W(SA)>
2.236

> <Valence>
2.742

> <Coulomb>
69.270

> <VdW>
0.339

> <VdW6>
-7.703

> <VdW12>
8.042

> <Bond>
0.229

> <Angle>
0.954

> <Pdih>
1.560

> <Idih>
0.000

> <Tether>
0.000

$$$$
VeraChem MOL file


 26 25  0  0  0  0  0  0  0  0999 V2000     
   19.1142   18.6976   25.4295 N   0  3  0  0  0  0  0  0  0  0  0  0
   18.5465   17.9017   25.7611 H   0  0  0  0  0  0  0  0  0  0  0  0
   18.5923   19.0873   24.6305 H   0  0  0  0  0  0  0  0  0  0  0  0
   20.4738   18.1974   24.9677 C   0  0  0  0  0  0  0  0  0  0  0  0
   20.2998   17.3602   24.2875 H   0  0  0  0  0  0  0  0  0  0  0  0
   21.0008   17.8121   25.8441 H   0  0  0  0  0  0  0  0  0  0  0  0
   21.3537   19.2508   24.2569 C   0  0  0  0  0  0  0  0  0  0  0  0
   21.6168   20.0454   24.9670 H   0  0  0  0  0  0  0  0  0  0  0  0
   22.3019   18.7779   23.9690 H   0  0  0  0  0  0  0  0  0  0  0  0
   20.6964   19.8811   23.0035 C   0  0  0  0  0  0  0  0  0  0  0  0
   21.3870   20.6259   22.5844 H   0  0  0  0  0  0  0  0  0  0  0  0
   19.7932   20.4340   23.2947 H   0  0  0  0  0  0  0  0  0  0  0  0
   20.3468   18.8424   21.9105 C   0  0  0  0  0  0  0  0  0  0  0  0
   21.2501   18.2792   21.6378 H   0  0  0  0  0  0  0  0  0  0  0  0
   19.6240   18.1136   22.3005 H   0  0  0  0  0  0  0  0  0  0  0  0
   19.7588   19.5126   20.6488 C   0  0  0  0  0  0  0  0  0  0  0  0
   20.4789   20.2371   20.2431 H   0  0  0  0  0  0  0  0  0  0  0  0
   18.8559   20.0794   20.9160 H   0  0  0  0  0  0  0  0  0  0  0  0
   19.4086   18.4755   19.5605 C   0  0  0  0  0  0  0  0  0  0  0  0
   18.6630   17.7568   19.9249 H   0  0  0  0  0  0  0  0  0  0  0  0
   20.2993   17.9150   19.2478 H   0  0  0  0  0  0  0  0  0  0  0  0
   18.9934   18.9702   18.6728 H   0  0  0  0  0  0  0  0  0  0  0  0
   19.2557   19.7326   26.5396 C   0  0  0  0  0  0  0  0  0  0  0  0
   19.7962   19.2877   27.3779 H   0  0  0  0  0  0  0  0  0  0  0  0
   19.8057   20.5960   26.1600 H   0  0  0  0  0  0  0  0  0  0  0  0
   18.2612   20.0449   26.8660 H   0  0  0  0  0  0  0  0  0  0  0  0
  1  2  1  0  0  0  0
  1  3  1  0  0  0  0
  1  4  1  0  0  0  0
  4  5  1  0  0  0  0
  4  6  1  0  0  0  0
  4  7  1  0  0  0  0
  7  8  1  0  0  0  0
  7  9  1  0  0  0  0
  7 10  1  0  0  0  0
 10 11  1  0  0  0  0
 10 12  1  0  0  0  0
 10 13  1  0  0  0  0
 13 14  1  0  0  0  0
 13 15  1  0  0  0  0
 13 16  1  0  0  0  0
 16 17  1  0  0  0  0
 16 18  1  0  0  0  0
 16 19  1  0  0  0  0
 19 20  1  0  0  0  0
 19 21  1  0  0  0  0
 19 22  1  0  0  0  0
  1 23  1  0  0  0  0
 23 24  1  0  0  0  0
 23 25  1  0  0  0  0
 23 26  1  0  0  0  0
M  END
> <VM2 Rank>
52

> <Conf_Id>
733

> <Probability>
0.71

> <Sum Probability>
81.57

> <Delta G>
1.356

> <G>
76.822

> <E>
44.139

> <-TS>
32.683

> <U+W>
22.677

> <U>
72.375

> <W>
-49.698

> <W(PB)>
-51.947

> <W(SA)>
2.249

> <Valence>
2.386

> <Coulomb>
69.688

> <VdW>
0.300

> <VdW6>
-7.603

> <VdW12>
7.902

> <Bond>
0.210

> <Angle>
0.753

> <Pdih>
1.423

> <Idih>
0.000

> <Tether>
0.000

$$$$
VeraChem MOL file


 26 25  0  0  0  0  0  0  0  0999 V2000     
   20.3333   18.5431   26.2745 N   0  3  0  0  0  0  0  0  0  0  0  0
   21.1967   18.1441   26.6761 H   0  0  0  0  0  0  0  0  0  0  0  0
   19.5782   17.9143   26.5890 H   0  0  0  0  0  0  0  0  0  0  0  0
   20.4265   18.5350   24.7580 C   0  0  0  0  0  0  0  0  0  0  0  0
   20.7454   17.5338   24.4571 H   0  0  0  0  0  0  0  0  0  0  0  0
   21.2072   19.2418   24.4673 H   0  0  0  0  0  0  0  0  0  0  0  0
   19.1074   18.8793   24.0340 C   0  0  0  0  0  0  0  0  0  0  0  0
   18.3175   18.2034   24.3873 H   0  0  0  0  0  0  0  0  0  0  0  0
   18.7902   19.8970   24.2955 H   0  0  0  0  0  0  0  0  0  0  0  0
   19.2247   18.7558   22.4966 C   0  0  0  0  0  0  0  0  0  0  0  0
   18.2355   18.9316   22.0518 H   0  0  0  0  0  0  0  0  0  0  0  0
   19.5038   17.7254   22.2394 H   0  0  0  0  0  0  0  0  0  0  0  0
   20.2433   19.7518   21.8863 C   0  0  0  0  0  0  0  0  0  0  0  0
   20.0075   20.7662   22.2366 H   0  0  0  0  0  0  0  0  0  0  0  0
   21.2555   19.5266   22.2482 H   0  0  0  0  0  0  0  0  0  0  0  0
   20.2465   19.7552   20.3384 C   0  0  0  0  0  0  0  0  0  0  0  0
   20.9156   20.5539   19.9886 H   0  0  0  0  0  0  0  0  0  0  0  0
   19.2445   20.0090   19.9648 H   0  0  0  0  0  0  0  0  0  0  0  0
   20.7066   18.4141   19.7227 C   0  0  0  0  0  0  0  0  0  0  0  0
   20.0015   17.6043   19.9472 H   0  0  0  0  0  0  0  0  0  0  0  0
   21.6956   18.1244   20.1009 H   0  0  0  0  0  0  0  0  0  0  0  0
   20.7765   18.4968   18.6304 H   0  0  0  0  0  0  0  0  0  0  0  0
   20.1197   19.9557   26.8065 C   0  0  0  0  0  0  0  0  0  0  0  0
   20.9425   20.5925   26.4741 H   0  0  0  0  0  0  0  0  0  0  0  0
   19.1728   20.3456   26.4280 H   0  0  0  0  0  0  0  0  0  0  0  0
   20.0943   19.9262   27.8981 H   0  0  0  0  0  0  0  0  0  0  0  0
  1  2  1  0  0  0  0
  1  3  1  0  0  0  0
  1  4  1  0  0  0  0
  4  5  1  0  0  0  0
  4  6  1  0  0  0  0
  4  7  1  0  0  0  0
  7  8  1  0  0  0  0
  7  9  1  0  0  0  0
  7 10  1  0  0  0  0
 10 11  1  0  0  0  0
 10 12  1  0  0  0  0
 10 13  1  0  0  0  0
 13 14  1  0  0  0  0
 13 15  1  0  0  0  0
 13 16  1  0  0  0  0
 16 17  1  0  0  0  0
 16 18  1  0  0  0  0
 16 19  1  0  0  0  0
 19 20  1  0  0  0  0
 19 21  1  0  0  0  0
 19 22  1  0  0  0  0
  1 23  1  0  0  0  0
 23 24  1  0  0  0  0
 23 25  1  0  0  0  0
 23 26  1  0  0  0  0
M  END
> <VM2 Rank>
53

> <Conf_Id>
1551

> <Probability>
0.70

> <Sum Probability>
82.27

> <Delta G>
1.365

> <G>
76.831

> <E>
44.286

> <-TS>
32.544

> <U+W>
22.825

> <U>
72.114

> <W>
-49.290

> <W(PB)>
-51.566

> <W(SA)>
2.276

> <Valence>
2.783

> <Coulomb>
68.782

> <VdW>
0.549

> <VdW6>
-7.241

> <VdW12>
7.790

> <Bond>
0.221

> <Angle>
0.803

> <Pdih>
1.759

> <Idih>
0.000

> <Tether>
0.000

$$$$
VeraChem MOL file


 26 25  0  0  0  0  0  0  0  0999 V2000     
   20.4592   19.1918   26.1790 N   0  3  0  0  0  0  0  0  0  0  0  0
   20.8159   19.6825   27.0143 H   0  0  0  0  0  0  0  0  0  0  0  0
   21.2670   18.6668   25.8121 H   0  0  0  0  0  0  0  0  0  0  0  0
   19.9875   20.2109   25.1532 C   0  0  0  0  0  0  0  0  0  0  0  0
   20.7927   20.9382   25.0214 H   0  0  0  0  0  0  0  0  0  0  0  0
   19.1288   20.7349   25.5804 H   0  0  0  0  0  0  0  0  0  0  0  0
   19.6034   19.6327   23.7733 C   0  0  0  0  0  0  0  0  0  0  0  0
   18.7642   18.9339   23.8830 H   0  0  0  0  0  0  0  0  0  0  0  0
   19.2382   20.4605   23.1533 H   0  0  0  0  0  0  0  0  0  0  0  0
   20.7900   18.9302   23.0663 C   0  0  0  0  0  0  0  0  0  0  0  0
   21.1711   18.1260   23.7093 H   0  0  0  0  0  0  0  0  0  0  0  0
   21.6177   19.6411   22.9364 H   0  0  0  0  0  0  0  0  0  0  0  0
   20.4165   18.3127   21.6959 C   0  0  0  0  0  0  0  0  0  0  0  0
   21.2743   17.7303   21.3322 H   0  0  0  0  0  0  0  0  0  0  0  0
   19.5926   17.5975   21.8263 H   0  0  0  0  0  0  0  0  0  0  0  0
   20.0330   19.3614   20.6247 C   0  0  0  0  0  0  0  0  0  0  0  0
   20.8338   20.1084   20.5328 H   0  0  0  0  0  0  0  0  0  0  0  0
   19.1267   19.9017   20.9285 H   0  0  0  0  0  0  0  0  0  0  0  0
   19.7857   18.7057   19.2492 C   0  0  0  0  0  0  0  0  0  0  0  0
   18.9691   17.9739   19.3019 H   0  0  0  0  0  0  0  0  0  0  0  0
   20.6852   18.1889   18.8900 H   0  0  0  0  0  0  0  0  0  0  0  0
   19.5120   19.4624   18.5025 H   0  0  0  0  0  0  0  0  0  0  0  0
   19.3327   18.2445   26.5755 C   0  0  0  0  0  0  0  0  0  0  0  0
   19.0063   17.6841   25.6972 H   0  0  0  0  0  0  0  0  0  0  0  0
   19.6991   17.5527   27.3372 H   0  0  0  0  0  0  0  0  0  0  0  0
   18.4993   18.8259   26.9757 H   0  0  0  0  0  0  0  0  0  0  0  0
  1  2  1  0  0  0  0
  1  3  1  0  0  0  0
  1  4  1  0  0  0  0
  4  5  1  0  0  0  0
  4  6  1  0  0  0  0
  4  7  1  0  0  0  0
  7  8  1  0  0  0  0
  7  9  1  0  0  0  0
  7 10  1  0  0  0  0
 10 11  1  0  0  0  0
 10 12  1  0  0  0  0
 10 13  1  0  0  0  0
 13 14  1  0  0  0  0
 13 15  1  0  0  0  0
 13 16  1  0  0  0  0
 16 17  1  0  0  0  0
 16 18  1  0  0  0  0
 16 19  1  0  0  0  0
 19 20  1  0  0  0  0
 19 21  1  0  0  0  0
 19 22  1  0  0  0  0
  1 23  1  0  0  0  0
 23 24  1  0  0  0  0
 23 25  1  0  0  0  0
 23 26  1  0  0  0  0
M  END
> <VM2 Rank>
54

> <Conf_Id>
1479

> <Probability>
0.70

> <Sum Probability>
82.97

> <Delta G>
1.368

> <G>
76.834

> <E>
44.285

> <-TS>
32.549

> <U+W>
22.824

> <U>
72.239

> <W>
-49.415

> <W(PB)>
-51.667

> <W(SA)>
2.252

> <Valence>
2.659

> <Coulomb>
69.025

> <VdW>
0.555

> <VdW6>
-7.358

> <VdW12>
7.913

> <Bond>
0.229

> <Angle>
0.883

> <Pdih>
1.546

> <Idih>
0.000

> <Tether>
0.000

$$$$
VeraChem MOL file


 26 25  0  0  0  0  0  0  0  0999 V2000     
   20.8922   18.8791   25.4924 N   0  3  0  0  0  0  0  0  0  0  0  0
   21.3794   19.3717   24.7290 H   0  0  0  0  0  0  0  0  0  0  0  0
   21.5842   18.2117   25.8684 H   0  0  0  0  0  0  0  0  0  0  0  0
   19.6972   18.1182   24.9402 C   0  0  0  0  0  0  0  0  0  0  0  0
   19.1988   17.6282   25.7804 H   0  0  0  0  0  0  0  0  0  0  0  0
   20.0836   17.3381   24.2798 H   0  0  0  0  0  0  0  0  0  0  0  0
   18.6748   18.9773   24.1620 C   0  0  0  0  0  0  0  0  0  0  0  0
   17.8641   18.3249   23.8118 H   0  0  0  0  0  0  0  0  0  0  0  0
   18.2077   19.6974   24.8462 H   0  0  0  0  0  0  0  0  0  0  0  0
   19.2775   19.7363   22.9532 C   0  0  0  0  0  0  0  0  0  0  0  0
   20.0277   20.4581   23.3030 H   0  0  0  0  0  0  0  0  0  0  0  0
   18.4818   20.3293   22.4814 H   0  0  0  0  0  0  0  0  0  0  0  0
   19.9053   18.7973   21.8950 C   0  0  0  0  0  0  0  0  0  0  0  0
   20.7314   18.2269   22.3399 H   0  0  0  0  0  0  0  0  0  0  0  0
   19.1558   18.0652   21.5638 H   0  0  0  0  0  0  0  0  0  0  0  0
   20.4328   19.5814   20.6727 C   0  0  0  0  0  0  0  0  0  0  0  0
   21.1815   20.3171   20.9983 H   0  0  0  0  0  0  0  0  0  0  0  0
   19.6113   20.1482   20.2123 H   0  0  0  0  0  0  0  0  0  0  0  0
   21.0607   18.6441   19.6192 C   0  0  0  0  0  0  0  0  0  0  0  0
   21.4285   19.2187   18.7592 H   0  0  0  0  0  0  0  0  0  0  0  0
   20.3258   17.9174   19.2490 H   0  0  0  0  0  0  0  0  0  0  0  0
   21.9088   18.0884   20.0401 H   0  0  0  0  0  0  0  0  0  0  0  0
   20.4676   19.8562   26.5824 C   0  0  0  0  0  0  0  0  0  0  0  0
   21.3532   20.3605   26.9752 H   0  0  0  0  0  0  0  0  0  0  0  0
   19.7825   20.5936   26.1591 H   0  0  0  0  0  0  0  0  0  0  0  0
   19.9707   19.3054   27.3840 H   0  0  0  0  0  0  0  0  0  0  0  0
  1  2  1  0  0  0  0
  1  3  1  0  0  0  0
  1  4  1  0  0  0  0
  4  5  1  0  0  0  0
  4  6  1  0  0  0  0
  4  7  1  0  0  0  0
  7  8  1  0  0  0  0
  7  9  1  0  0  0  0
  7 10  1  0  0  0  0
 10 11  1  0  0  0  0
 10 12  1  0  0  0  0
 10 13  1  0  0  0  0
 13 14  1  0  0  0  0
 13 15  1  0  0  0  0
 13 16  1  0  0  0  0
 16 17  1  0  0  0  0
 16 18  1  0  0  0  0
 16 19  1  0  0  0  0
 19 20  1  0  0  0  0
 19 21  1  0  0  0  0
 19 22  1  0  0  0  0
  1 23  1  0  0  0  0
 23 24  1  0  0  0  0
 23 25  1  0  0  0  0
 23 26  1  0  0  0  0
M  END
> <VM2 Rank>
55

> <Conf_Id>
814

> <Probability>
0.68

> <Sum Probability>
83.65

> <Delta G>
1.381

> <G>
76.847

> <E>
44.163

> <-TS>
32.683

> <U+W>
22.702

> <U>
72.375

> <W>
-49.673

> <W(PB)>
-51.923

> <W(SA)>
2.250

> <Valence>
2.386

> <Coulomb>
69.689

> <VdW>
0.300

> <VdW6>
-7.603

> <VdW12>
7.903

> <Bond>
0.210

> <Angle>
0.753

> <Pdih>
1.423

> <Idih>
0.000

> <Tether>
0.000

$$$$
VeraChem MOL file


 26 25  0  0  0  0  0  0  0  0999 V2000     
   19.4876   19.2034   26.3620 N   0  3  0  0  0  0  0  0  0  0  0  0
   19.1372   18.2834   26.6708 H   0  0  0  0  0  0  0  0  0  0  0  0
   18.8871   19.8921   26.8425 H   0  0  0  0  0  0  0  0  0  0  0  0
   19.3263   19.3492   24.8582 C   0  0  0  0  0  0  0  0  0  0  0  0
   19.7444   20.3165   24.5701 H   0  0  0  0  0  0  0  0  0  0  0  0
   18.2542   19.3656   24.6463 H   0  0  0  0  0  0  0  0  0  0  0  0
   19.9831   18.2225   24.0323 C   0  0  0  0  0  0  0  0  0  0  0  0
   21.0678   18.2167   24.2002 H   0  0  0  0  0  0  0  0  0  0  0  0
   19.6054   17.2542   24.3862 H   0  0  0  0  0  0  0  0  0  0  0  0
   19.6979   18.3484   22.5169 C   0  0  0  0  0  0  0  0  0  0  0  0
   18.6125   18.3400   22.3463 H   0  0  0  0  0  0  0  0  0  0  0  0
   20.0985   17.4570   22.0169 H   0  0  0  0  0  0  0  0  0  0  0  0
   20.3177   19.6216   21.8863 C   0  0  0  0  0  0  0  0  0  0  0  0
   19.9359   20.5113   22.4042 H   0  0  0  0  0  0  0  0  0  0  0  0
   21.4058   19.6186   22.0390 H   0  0  0  0  0  0  0  0  0  0  0  0
   20.0092   19.7743   20.3769 C   0  0  0  0  0  0  0  0  0  0  0  0
   20.3817   20.7515   20.0389 H   0  0  0  0  0  0  0  0  0  0  0  0
   18.9216   19.7896   20.2192 H   0  0  0  0  0  0  0  0  0  0  0  0
   20.6465   18.6708   19.5019 C   0  0  0  0  0  0  0  0  0  0  0  0
   20.4792   18.8806   18.4375 H   0  0  0  0  0  0  0  0  0  0  0  0
   20.2133   17.6857   19.7144 H   0  0  0  0  0  0  0  0  0  0  0  0
   21.7304   18.6132   19.6657 H   0  0  0  0  0  0  0  0  0  0  0  0
   20.9397   19.3999   26.7826 C   0  0  0  0  0  0  0  0  0  0  0  0
   21.5580   18.6279   26.3201 H   0  0  0  0  0  0  0  0  0  0  0  0
   21.2762   20.3875   26.4597 H   0  0  0  0  0  0  0  0  0  0  0  0
   21.0100   19.3238   27.8699 H   0  0  0  0  0  0  0  0  0  0  0  0
  1  2  1  0  0  0  0
  1  3  1  0  0  0  0
  1  4  1  0  0  0  0
  4  5  1  0  0  0  0
  4  6  1  0  0  0  0
  4  7  1  0  0  0  0
  7  8  1  0  0  0  0
  7  9  1  0  0  0  0
  7 10  1  0  0  0  0
 10 11  1  0  0  0  0
 10 12  1  0  0  0  0
 10 13  1  0  0  0  0
 13 14  1  0  0  0  0
 13 15  1  0  0  0  0
 13 16  1  0  0  0  0
 16 17  1  0  0  0  0
 16 18  1  0  0  0  0
 16 19  1  0  0  0  0
 19 20  1  0  0  0  0
 19 21  1  0  0  0  0
 19 22  1  0  0  0  0
  1 23  1  0  0  0  0
 23 24  1  0  0  0  0
 23 25  1  0  0  0  0
 23 26  1  0  0  0  0
M  END
> <VM2 Rank>
56

> <Conf_Id>
1607

> <Probability>
0.65

> <Sum Probability>
84.30

> <Delta G>
1.413

> <G>
76.879

> <E>
44.365

> <-TS>
32.514

> <U+W>
22.903

> <U>
72.180

> <W>
-49.277

> <W(PB)>
-51.573

> <W(SA)>
2.296

> <Valence>
2.842

> <Coulomb>
68.728

> <VdW>
0.610

> <VdW6>
-7.185

> <VdW12>
7.795

> <Bond>
0.227

> <Angle>
0.860

> <Pdih>
1.755

> <Idih>
0.000

> <Tether>
0.000

$$$$
VeraChem MOL file


 26 25  0  0  0  0  0  0  0  0999 V2000     
   19.8190   18.3997   26.2069 N   0  3  0  0  0  0  0  0  0  0  0  0
   20.7681   18.0341   26.3804 H   0  0  0  0  0  0  0  0  0  0  0  0
   19.1833   17.6461   26.5131 H   0  0  0  0  0  0  0  0  0  0  0  0
   19.6196   18.6611   24.7233 C   0  0  0  0  0  0  0  0  0  0  0  0
   18.6237   19.0902   24.5878 H   0  0  0  0  0  0  0  0  0  0  0  0
   19.6429   17.6917   24.2199 H   0  0  0  0  0  0  0  0  0  0  0  0
   20.6802   19.5852   24.0873 C   0  0  0  0  0  0  0  0  0  0  0  0
   20.6609   20.5623   24.5868 H   0  0  0  0  0  0  0  0  0  0  0  0
   21.6814   19.1668   24.2549 H   0  0  0  0  0  0  0  0  0  0  0  0
   20.4525   19.7983   22.5721 C   0  0  0  0  0  0  0  0  0  0  0  0
   21.1867   20.5285   22.2046 H   0  0  0  0  0  0  0  0  0  0  0  0
   19.4622   20.2472   22.4179 H   0  0  0  0  0  0  0  0  0  0  0  0
   20.5784   18.4909   21.7494 C   0  0  0  0  0  0  0  0  0  0  0  0
   21.5311   18.0019   21.9957 H   0  0  0  0  0  0  0  0  0  0  0  0
   19.7857   17.7865   22.0347 H   0  0  0  0  0  0  0  0  0  0  0  0
   20.5259   18.7210   20.2196 C   0  0  0  0  0  0  0  0  0  0  0  0
   20.7224   17.7662   19.7121 H   0  0  0  0  0  0  0  0  0  0  0  0
   21.3346   19.4012   19.9176 H   0  0  0  0  0  0  0  0  0  0  0  0
   19.1693   19.2763   19.7290 C   0  0  0  0  0  0  0  0  0  0  0  0
   18.3406   18.6275   20.0411 H   0  0  0  0  0  0  0  0  0  0  0  0
   19.1529   19.3374   18.6331 H   0  0  0  0  0  0  0  0  0  0  0  0
   18.9819   20.2849   20.1178 H   0  0  0  0  0  0  0  0  0  0  0  0
   19.5632   19.6574   27.0295 C   0  0  0  0  0  0  0  0  0  0  0  0
   18.5472   20.0101   26.8392 H   0  0  0  0  0  0  0  0  0  0  0  0
   19.6785   19.4204   28.0895 H   0  0  0  0  0  0  0  0  0  0  0  0
   20.2825   20.4282   26.7460 H   0  0  0  0  0  0  0  0  0  0  0  0
  1  2  1  0  0  0  0
  1  3  1  0  0  0  0
  1  4  1  0  0  0  0
  4  5  1  0  0  0  0
  4  6  1  0  0  0  0
  4  7  1  0  0  0  0
  7  8  1  0  0  0  0
  7  9  1  0  0  0  0
  7 10  1  0  0  0  0
 10 11  1  0  0  0  0
 10 12  1  0  0  0  0
 10 13  1  0  0  0  0
 13 14  1  0  0  0  0
 13 15  1  0  0  0  0
 13 16  1  0  0  0  0
 16 17  1  0  0  0  0
 16 18  1  0  0  0  0
 16 19  1  0  0  0  0
 19 20  1  0  0  0  0
 19 21  1  0  0  0  0
 19 22  1  0  0  0  0
  1 23  1  0  0  0  0
 23 24  1  0  0  0  0
 23 25  1  0  0  0  0
 23 26  1  0  0  0  0
M  END
> <VM2 Rank>
57

> <Conf_Id>
1038

> <Probability>
0.64

> <Sum Probability>
84.94

> <Delta G>
1.419

> <G>
76.885

> <E>
44.336

> <-TS>
32.548

> <U+W>
22.875

> <U>
72.218

> <W>
-49.343

> <W(PB)>
-51.615

> <W(SA)>
2.271

> <Valence>
2.804

> <Coulomb>
68.814

> <VdW>
0.600

> <VdW6>
-7.202

> <VdW12>
7.802

> <Bond>
0.224

> <Angle>
0.821

> <Pdih>
1.760

> <Idih>
0.000

> <Tether>
0.000

$$$$
VeraChem MOL file


 26 25  0  0  0  0  0  0  0  0999 V2000     
   20.2092   18.4393   26.2206 N   0  3  0  0  0  0  0  0  0  0  0  0
   20.9607   17.8272   26.5760 H   0  0  0  0  0  0  0  0  0  0  0  0
   19.3435   17.8887   26.3297 H   0  0  0  0  0  0  0  0  0  0  0  0
   20.4552   18.7464   24.7529 C   0  0  0  0  0  0  0  0  0  0  0  0
   20.6630   17.7958   24.2559 H   0  0  0  0  0  0  0  0  0  0  0  0
   21.3514   19.3682   24.6845 H   0  0  0  0  0  0  0  0  0  0  0  0
   19.2775   19.4425   24.0376 C   0  0  0  0  0  0  0  0  0  0  0  0
   18.3718   18.8299   24.1377 H   0  0  0  0  0  0  0  0  0  0  0  0
   19.0647   20.3999   24.5302 H   0  0  0  0  0  0  0  0  0  0  0  0
   19.5632   19.7078   22.5405 C   0  0  0  0  0  0  0  0  0  0  0  0
   20.4511   20.3479   22.4528 H   0  0  0  0  0  0  0  0  0  0  0  0
   18.7246   20.2779   22.1174 H   0  0  0  0  0  0  0  0  0  0  0  0
   19.7609   18.4077   21.7205 C   0  0  0  0  0  0  0  0  0  0  0  0
   20.6572   17.8753   22.0656 H   0  0  0  0  0  0  0  0  0  0  0  0
   18.9112   17.7352   21.9030 H   0  0  0  0  0  0  0  0  0  0  0  0
   19.8730   18.6546   20.1965 C   0  0  0  0  0  0  0  0  0  0  0  0
   18.9671   19.1602   19.8338 H   0  0  0  0  0  0  0  0  0  0  0  0
   19.9086   17.6833   19.6833 H   0  0  0  0  0  0  0  0  0  0  0  0
   21.1211   19.4749   19.7980 C   0  0  0  0  0  0  0  0  0  0  0  0
   21.0740   20.4977   20.1918 H   0  0  0  0  0  0  0  0  0  0  0  0
   21.2015   19.5458   18.7056 H   0  0  0  0  0  0  0  0  0  0  0  0
   22.0394   19.0039   20.1719 H   0  0  0  0  0  0  0  0  0  0  0  0
   20.1479   19.7169   27.0504 C   0  0  0  0  0  0  0  0  0  0  0  0
   20.0088   19.4537   28.1013 H   0  0  0  0  0  0  0  0  0  0  0  0
   21.0827   20.2685   26.9292 H   0  0  0  0  0  0  0  0  0  0  0  0
   19.3095   20.3288   26.7117 H   0  0  0  0  0  0  0  0  0  0  0  0
  1  2  1  0  0  0  0
  1  3  1  0  0  0  0
  1  4  1  0  0  0  0
  4  5  1  0  0  0  0
  4  6  1  0  0  0  0
  4  7  1  0  0  0  0
  7  8  1  0  0  0  0
  7  9  1  0  0  0  0
  7 10  1  0  0  0  0
 10 11  1  0  0  0  0
 10 12  1  0  0  0  0
 10 13  1  0  0  0  0
 13 14  1  0  0  0  0
 13 15  1  0  0  0  0
 13 16  1  0  0  0  0
 16 17  1  0  0  0  0
 16 18  1  0  0  0  0
 16 19  1  0  0  0  0
 19 20  1  0  0  0  0
 19 21  1  0  0  0  0
 19 22  1  0  0  0  0
  1 23  1  0  0  0  0
 23 24  1  0  0  0  0
 23 25  1  0  0  0  0
 23 26  1  0  0  0  0
M  END
> <VM2 Rank>
58

> <Conf_Id>
1083

> <Probability>
0.62

> <Sum Probability>
85.56

> <Delta G>
1.440

> <G>
76.906

> <E>
44.357

> <-TS>
32.549

> <U+W>
22.895

> <U>
72.218

> <W>
-49.323

> <W(PB)>
-51.598

> <W(SA)>
2.275

> <Valence>
2.805

> <Coulomb>
68.814

> <VdW>
0.600

> <VdW6>
-7.202

> <VdW12>
7.802

> <Bond>
0.224

> <Angle>
0.821

> <Pdih>
1.760

> <Idih>
0.000

> <Tether>
0.000

$$$$
VeraChem MOL file


 26 25  0  0  0  0  0  0  0  0999 V2000     
   20.3599   19.2924   26.3929 N   0  3  0  0  0  0  0  0  0  0  0  0
   20.7739   20.0846   26.9095 H   0  0  0  0  0  0  0  0  0  0  0  0
   20.8661   18.4599   26.7322 H   0  0  0  0  0  0  0  0  0  0  0  0
   20.5936   19.4785   24.9031 C   0  0  0  0  0  0  0  0  0  0  0  0
   21.6526   19.7124   24.7669 H   0  0  0  0  0  0  0  0  0  0  0  0
   20.0103   20.3436   24.5794 H   0  0  0  0  0  0  0  0  0  0  0  0
   20.2373   18.2484   24.0413 C   0  0  0  0  0  0  0  0  0  0  0  0
   20.7770   17.3737   24.4277 H   0  0  0  0  0  0  0  0  0  0  0  0
   19.1670   18.0225   24.1328 H   0  0  0  0  0  0  0  0  0  0  0  0
   20.5966   18.4401   22.5488 C   0  0  0  0  0  0  0  0  0  0  0  0
   20.4201   17.4899   22.0283 H   0  0  0  0  0  0  0  0  0  0  0  0
   21.6706   18.6521   22.4547 H   0  0  0  0  0  0  0  0  0  0  0  0
   19.7784   19.5665   21.8673 C   0  0  0  0  0  0  0  0  0  0  0  0
   18.7053   19.3431   21.9435 H   0  0  0  0  0  0  0  0  0  0  0  0
   19.9358   20.5113   22.4042 H   0  0  0  0  0  0  0  0  0  0  0  0
   20.1546   19.7891   20.3821 C   0  0  0  0  0  0  0  0  0  0  0  0
   21.2250   20.0244   20.3007 H   0  0  0  0  0  0  0  0  0  0  0  0
   19.6173   20.6736   20.0119 H   0  0  0  0  0  0  0  0  0  0  0  0
   19.8155   18.5861   19.4725 C   0  0  0  0  0  0  0  0  0  0  0  0
   20.4224   17.7070   19.7218 H   0  0  0  0  0  0  0  0  0  0  0  0
   20.0109   18.8329   18.4209 H   0  0  0  0  0  0  0  0  0  0  0  0
   18.7567   18.3101   19.5606 H   0  0  0  0  0  0  0  0  0  0  0  0
   18.8721   19.1890   26.7091 C   0  0  0  0  0  0  0  0  0  0  0  0
   18.3668   20.0906   26.3562 H   0  0  0  0  0  0  0  0  0  0  0  0
   18.4563   18.3114   26.2100 H   0  0  0  0  0  0  0  0  0  0  0  0
   18.7425   19.0925   27.7893 H   0  0  0  0  0  0  0  0  0  0  0  0
  1  2  1  0  0  0  0
  1  3  1  0  0  0  0
  1  4  1  0  0  0  0
  4  5  1  0  0  0  0
  4  6  1  0  0  0  0
  4  7  1  0  0  0  0
  7  8  1  0  0  0  0
  7  9  1  0  0  0  0
  7 10  1  0  0  0  0
 10 11  1  0  0  0  0
 10 12  1  0  0  0  0
 10 13  1  0  0  0  0
 13 14  1  0  0  0  0
 13 15  1  0  0  0  0
 13 16  1  0  0  0  0
 16 17  1  0  0  0  0
 16 18  1  0  0  0  0
 16 19  1  0  0  0  0
 19 20  1  0  0  0  0
 19 21  1  0  0  0  0
 19 22  1  0  0  0  0
  1 23  1  0  0  0  0
 23 24  1  0  0  0  0
 23 25  1  0  0  0  0
 23 26  1  0  0  0  0
M  END
> <VM2 Rank>
59

> <Conf_Id>
1020

> <Probability>
0.57

> <Sum Probability>
86.12

> <Delta G>
1.493

> <G>
76.959

> <E>
44.446

> <-TS>
32.514

> <U+W>
22.984

> <U>
72.180

> <W>
-49.196

> <W(PB)>
-51.484

> <W(SA)>
2.287

> <Valence>
2.842

> <Coulomb>
68.728

> <VdW>
0.610

> <VdW6>
-7.185

> <VdW12>
7.795

> <Bond>
0.227

> <Angle>
0.860

> <Pdih>
1.755

> <Idih>
0.000

> <Tether>
0.000

$$$$
VeraChem MOL file


 26 25  0  0  0  0  0  0  0  0999 V2000     
   20.0322   19.0269   26.2947 N   0  3  0  0  0  0  0  0  0  0  0  0
   20.8604   18.4283   26.4366 H   0  0  0  0  0  0  0  0  0  0  0  0
   19.4293   18.8454   27.1129 H   0  0  0  0  0  0  0  0  0  0  0  0
   19.3019   18.6211   25.0254 C   0  0  0  0  0  0  0  0  0  0  0  0
   18.4584   19.3026   24.8899 H   0  0  0  0  0  0  0  0  0  0  0  0
   18.9034   17.6164   25.1875 H   0  0  0  0  0  0  0  0  0  0  0  0
   20.1788   18.6134   23.7568 C   0  0  0  0  0  0  0  0  0  0  0  0
   20.5608   19.6249   23.5729 H   0  0  0  0  0  0  0  0  0  0  0  0
   21.0480   17.9626   23.9185 H   0  0  0  0  0  0  0  0  0  0  0  0
   19.3817   18.1212   22.5260 C   0  0  0  0  0  0  0  0  0  0  0  0
   18.5334   18.7935   22.3401 H   0  0  0  0  0  0  0  0  0  0  0  0
   18.9435   17.1395   22.7540 H   0  0  0  0  0  0  0  0  0  0  0  0
   20.2415   17.9858   21.2425 C   0  0  0  0  0  0  0  0  0  0  0  0
   21.0156   17.2242   21.4097 H   0  0  0  0  0  0  0  0  0  0  0  0
   19.6078   17.5964   20.4337 H   0  0  0  0  0  0  0  0  0  0  0  0
   20.9226   19.2921   20.7597 C   0  0  0  0  0  0  0  0  0  0  0  0
   21.4969   19.0707   19.8492 H   0  0  0  0  0  0  0  0  0  0  0  0
   21.6574   19.6339   21.5010 H   0  0  0  0  0  0  0  0  0  0  0  0
   19.9229   20.4302   20.4526 C   0  0  0  0  0  0  0  0  0  0  0  0
   19.4072   20.7686   21.3599 H   0  0  0  0  0  0  0  0  0  0  0  0
   19.1660   20.1055   19.7270 H   0  0  0  0  0  0  0  0  0  0  0  0
   20.4456   21.2968   20.0274 H   0  0  0  0  0  0  0  0  0  0  0  0
   20.4264   20.4993   26.2593 C   0  0  0  0  0  0  0  0  0  0  0  0
   19.5292   21.1077   26.1265 H   0  0  0  0  0  0  0  0  0  0  0  0
   20.9133   20.7613   27.2013 H   0  0  0  0  0  0  0  0  0  0  0  0
   21.1161   20.6696   25.4302 H   0  0  0  0  0  0  0  0  0  0  0  0
  1  2  1  0  0  0  0
  1  3  1  0  0  0  0
  1  4  1  0  0  0  0
  4  5  1  0  0  0  0
  4  6  1  0  0  0  0
  4  7  1  0  0  0  0
  7  8  1  0  0  0  0
  7  9  1  0  0  0  0
  7 10  1  0  0  0  0
 10 11  1  0  0  0  0
 10 12  1  0  0  0  0
 10 13  1  0  0  0  0
 13 14  1  0  0  0  0
 13 15  1  0  0  0  0
 13 16  1  0  0  0  0
 16 17  1  0  0  0  0
 16 18  1  0  0  0  0
 16 19  1  0  0  0  0
 19 20  1  0  0  0  0
 19 21  1  0  0  0  0
 19 22  1  0  0  0  0
  1 23  1  0  0  0  0
 23 24  1  0  0  0  0
 23 25  1  0  0  0  0
 23 26  1  0  0  0  0
M  END
> <VM2 Rank>
60

> <Conf_Id>
1536

> <Probability>
0.54

> <Sum Probability>
86.66

> <Delta G>
1.520

> <G>
76.986

> <E>
44.220

> <-TS>
32.766

> <U+W>
22.758

> <U>
72.216

> <W>
-49.458

> <W(PB)>
-51.693

> <W(SA)>
2.234

> <Valence>
2.957

> <Coulomb>
68.763

> <VdW>
0.496

> <VdW6>
-7.593

> <VdW12>
8.090

> <Bond>
0.242

> <Angle>
1.123

> <Pdih>
1.593

> <Idih>
0.000

> <Tether>
0.000

$$$$
VeraChem MOL file


 26 25  0  0  0  0  0  0  0  0999 V2000     
   19.8709   18.2985   26.1261 N   0  3  0  0  0  0  0  0  0  0  0  0
   20.4408   17.8645   26.8696 H   0  0  0  0  0  0  0  0  0  0  0  0
   19.2482   17.5457   25.7945 H   0  0  0  0  0  0  0  0  0  0  0  0
   20.7767   18.7660   24.9991 C   0  0  0  0  0  0  0  0  0  0  0  0
   21.4391   17.9335   24.7485 H   0  0  0  0  0  0  0  0  0  0  0  0
   21.3913   19.5858   25.3794 H   0  0  0  0  0  0  0  0  0  0  0  0
   20.0335   19.2154   23.7247 C   0  0  0  0  0  0  0  0  0  0  0  0
   19.3811   18.4006   23.3865 H   0  0  0  0  0  0  0  0  0  0  0  0
   19.3886   20.0735   23.9537 H   0  0  0  0  0  0  0  0  0  0  0  0
   21.0256   19.6013   22.6026 C   0  0  0  0  0  0  0  0  0  0  0  0
   21.6444   18.7332   22.3390 H   0  0  0  0  0  0  0  0  0  0  0  0
   21.7205   20.3609   22.9872 H   0  0  0  0  0  0  0  0  0  0  0  0
   20.3379   20.1670   21.3329 C   0  0  0  0  0  0  0  0  0  0  0  0
   19.8170   21.0986   21.5937 H   0  0  0  0  0  0  0  0  0  0  0  0
   21.1140   20.4503   20.6086 H   0  0  0  0  0  0  0  0  0  0  0  0
   19.3331   19.2102   20.6414 C   0  0  0  0  0  0  0  0  0  0  0  0
   18.9143   19.7195   19.7623 H   0  0  0  0  0  0  0  0  0  0  0  0
   18.4813   19.0094   21.3049 H   0  0  0  0  0  0  0  0  0  0  0  0
   19.9671   17.8756   20.1876 C   0  0  0  0  0  0  0  0  0  0  0  0
   20.2960   17.2744   21.0444 H   0  0  0  0  0  0  0  0  0  0  0  0
   20.8337   18.0513   19.5373 H   0  0  0  0  0  0  0  0  0  0  0  0
   19.2403   17.2767   19.6238 H   0  0  0  0  0  0  0  0  0  0  0  0
   19.0633   19.4560   26.7025 C   0  0  0  0  0  0  0  0  0  0  0  0
   18.4155   19.8674   25.9258 H   0  0  0  0  0  0  0  0  0  0  0  0
   18.4544   19.0887   27.5316 H   0  0  0  0  0  0  0  0  0  0  0  0
   19.7480   20.2274   27.0615 H   0  0  0  0  0  0  0  0  0  0  0  0
  1  2  1  0  0  0  0
  1  3  1  0  0  0  0
  1  4  1  0  0  0  0
  4  5  1  0  0  0  0
  4  6  1  0  0  0  0
  4  7  1  0  0  0  0
  7  8  1  0  0  0  0
  7  9  1  0  0  0  0
  7 10  1  0  0  0  0
 10 11  1  0  0  0  0
 10 12  1  0  0  0  0
 10 13  1  0  0  0  0
 13 14  1  0  0  0  0
 13 15  1  0  0  0  0
 13 16  1  0  0  0  0
 16 17  1  0  0  0  0
 16 18  1  0  0  0  0
 16 19  1  0  0  0  0
 19 20  1  0  0  0  0
 19 21  1  0  0  0  0
 19 22  1  0  0  0  0
  1 23  1  0  0  0  0
 23 24  1  0  0  0  0
 23 25  1  0  0  0  0
 23 26  1  0  0  0  0
M  END
> <VM2 Rank>
61

> <Conf_Id>
957

> <Probability>
0.52

> <Sum Probability>
87.19

> <Delta G>
1.539

> <G>
77.005

> <E>
44.245

> <-TS>
32.760

> <U+W>
22.783

> <U>
72.256

> <W>
-49.473

> <W(PB)>
-51.710

> <W(SA)>
2.237

> <Valence>
2.959

> <Coulomb>
68.783

> <VdW>
0.513

> <VdW6>
-7.552

> <VdW12>
8.065

> <Bond>
0.240

> <Angle>
1.124

> <Pdih>
1.594

> <Idih>
0.000

> <Tether>
0.000

$$$$
VeraChem MOL file


 26 25  0  0  0  0  0  0  0  0999 V2000     
   19.8681   19.0106   26.2889 N   0  3  0  0  0  0  0  0  0  0  0  0
   20.4362   18.9465   27.1486 H   0  0  0  0  0  0  0  0  0  0  0  0
   19.1671   18.2586   26.3768 H   0  0  0  0  0  0  0  0  0  0  0  0
   20.7514   18.7664   25.0767 C   0  0  0  0  0  0  0  0  0  0  0  0
   21.3288   17.8594   25.2734 H   0  0  0  0  0  0  0  0  0  0  0  0
   21.4505   19.6025   24.9958 H   0  0  0  0  0  0  0  0  0  0  0  0
   19.9845   18.5939   23.7499 C   0  0  0  0  0  0  0  0  0  0  0  0
   19.2523   17.7826   23.8550 H   0  0  0  0  0  0  0  0  0  0  0  0
   19.4235   19.5108   23.5326 H   0  0  0  0  0  0  0  0  0  0  0  0
   20.9476   18.2779   22.5816 C   0  0  0  0  0  0  0  0  0  0  0  0
   21.5543   17.4009   22.8465 H   0  0  0  0  0  0  0  0  0  0  0  0
   21.6567   19.1062   22.4509 H   0  0  0  0  0  0  0  0  0  0  0  0
   20.2237   17.9840   21.2419 C   0  0  0  0  0  0  0  0  0  0  0  0
   20.9770   17.7335   20.4823 H   0  0  0  0  0  0  0  0  0  0  0  0
   19.6059   17.0831   21.3598 H   0  0  0  0  0  0  0  0  0  0  0  0
   19.3330   19.1330   20.7034 C   0  0  0  0  0  0  0  0  0  0  0  0
   18.4950   19.3174   21.3888 H   0  0  0  0  0  0  0  0  0  0  0  0
   18.8792   18.8087   19.7564 H   0  0  0  0  0  0  0  0  0  0  0  0
   20.1066   20.4486   20.4591 C   0  0  0  0  0  0  0  0  0  0  0  0
   20.9618   20.2853   19.7907 H   0  0  0  0  0  0  0  0  0  0  0  0
   20.4802   20.8760   21.3980 H   0  0  0  0  0  0  0  0  0  0  0  0
   19.4539   21.1975   19.9923 H   0  0  0  0  0  0  0  0  0  0  0  0
   19.1932   20.3757   26.2154 C   0  0  0  0  0  0  0  0  0  0  0  0
   18.5431   20.4115   25.3390 H   0  0  0  0  0  0  0  0  0  0  0  0
   18.5994   20.5295   27.1192 H   0  0  0  0  0  0  0  0  0  0  0  0
   19.9590   21.1509   26.1413 H   0  0  0  0  0  0  0  0  0  0  0  0
  1  2  1  0  0  0  0
  1  3  1  0  0  0  0
  1  4  1  0  0  0  0
  4  5  1  0  0  0  0
  4  6  1  0  0  0  0
  4  7  1  0  0  0  0
  7  8  1  0  0  0  0
  7  9  1  0  0  0  0
  7 10  1  0  0  0  0
 10 11  1  0  0  0  0
 10 12  1  0  0  0  0
 10 13  1  0  0  0  0
 13 14  1  0  0  0  0
 13 15  1  0  0  0  0
 13 16  1  0  0  0  0
 16 17  1  0  0  0  0
 16 18  1  0  0  0  0
 16 19  1  0  0  0  0
 19 20  1  0  0  0  0
 19 21  1  0  0  0  0
 19 22  1  0  0  0  0
  1 23  1  0  0  0  0
 23 24  1  0  0  0  0
 23 25  1  0  0  0  0
 23 26  1  0  0  0  0
M  END
> <VM2 Rank>
62

> <Conf_Id>
1467

> <Probability>
0.51

> <Sum Probability>
87.69

> <Delta G>
1.555

> <G>
77.021

> <E>
44.255

> <-TS>
32.766

> <U+W>
22.794

> <U>
72.216

> <W>
-49.423

> <W(PB)>
-51.678

> <W(SA)>
2.255

> <Valence>
2.957

> <Coulomb>
68.762

> <VdW>
0.497

> <VdW6>
-7.593

> <VdW12>
8.090

> <Bond>
0.242

> <Angle>
1.123

> <Pdih>
1.593

> <Idih>
0.000

> <Tether>
0.000

$$$$
VeraChem MOL file


 26 25  0  0  0  0  0  0  0  0999 V2000     
   19.8395   18.1140   25.7826 N   0  3  0  0  0  0  0  0  0  0  0  0
   20.4117   17.3041   26.0699 H   0  0  0  0  0  0  0  0  0  0  0  0
   18.9319   17.7125   25.5010 H   0  0  0  0  0  0  0  0  0  0  0  0
   20.4973   18.8074   24.6013 C   0  0  0  0  0  0  0  0  0  0  0  0
   20.7459   18.0332   23.8714 H   0  0  0  0  0  0  0  0  0  0  0  0
   21.4300   19.2570   24.9508 H   0  0  0  0  0  0  0  0  0  0  0  0
   19.6217   19.8793   23.9181 C   0  0  0  0  0  0  0  0  0  0  0  0
   18.6686   19.4338   23.6063 H   0  0  0  0  0  0  0  0  0  0  0  0
   19.3704   20.6630   24.6441 H   0  0  0  0  0  0  0  0  0  0  0  0
   20.3217   20.5395   22.7038 C   0  0  0  0  0  0  0  0  0  0  0  0
   21.2014   21.0938   23.0593 H   0  0  0  0  0  0  0  0  0  0  0  0
   19.6478   21.2907   22.2693 H   0  0  0  0  0  0  0  0  0  0  0  0
   20.7702   19.5562   21.5914 C   0  0  0  0  0  0  0  0  0  0  0  0
   21.2682   20.1337   20.8003 H   0  0  0  0  0  0  0  0  0  0  0  0
   21.5292   18.8657   21.9830 H   0  0  0  0  0  0  0  0  0  0  0  0
   19.6049   18.7519   20.9680 C   0  0  0  0  0  0  0  0  0  0  0  0
   18.8260   19.4414   20.6136 H   0  0  0  0  0  0  0  0  0  0  0  0
   19.1398   18.1085   21.7267 H   0  0  0  0  0  0  0  0  0  0  0  0
   20.0840   17.8731   19.7929 C   0  0  0  0  0  0  0  0  0  0  0  0
   19.2460   17.3079   19.3646 H   0  0  0  0  0  0  0  0  0  0  0  0
   20.8428   17.1518   20.1231 H   0  0  0  0  0  0  0  0  0  0  0  0
   20.5200   18.4858   18.9931 H   0  0  0  0  0  0  0  0  0  0  0  0
   19.6686   19.0685   26.9590 C   0  0  0  0  0  0  0  0  0  0  0  0
   19.0089   19.8881   26.6675 H   0  0  0  0  0  0  0  0  0  0  0  0
   19.2296   18.5253   27.7987 H   0  0  0  0  0  0  0  0  0  0  0  0
   20.6459   19.4630   27.2458 H   0  0  0  0  0  0  0  0  0  0  0  0
  1  2  1  0  0  0  0
  1  3  1  0  0  0  0
  1  4  1  0  0  0  0
  4  5  1  0  0  0  0
  4  6  1  0  0  0  0
  4  7  1  0  0  0  0
  7  8  1  0  0  0  0
  7  9  1  0  0  0  0
  7 10  1  0  0  0  0
 10 11  1  0  0  0  0
 10 12  1  0  0  0  0
 10 13  1  0  0  0  0
 13 14  1  0  0  0  0
 13 15  1  0  0  0  0
 13 16  1  0  0  0  0
 16 17  1  0  0  0  0
 16 18  1  0  0  0  0
 16 19  1  0  0  0  0
 19 20  1  0  0  0  0
 19 21  1  0  0  0  0
 19 22  1  0  0  0  0
  1 23  1  0  0  0  0
 23 24  1  0  0  0  0
 23 25  1  0  0  0  0
 23 26  1  0  0  0  0
M  END
> <VM2 Rank>
63

> <Conf_Id>
1532

> <Probability>
0.50

> <Sum Probability>
88.20

> <Delta G>
1.560

> <G>
77.026

> <E>
44.354

> <-TS>
32.673

> <U+W>
22.892

> <U>
72.548

> <W>
-49.656

> <W(PB)>
-51.921

> <W(SA)>
2.265

> <Valence>
2.777

> <Coulomb>
69.321

> <VdW>
0.450

> <VdW6>
-7.543

> <VdW12>
7.993

> <Bond>
0.232

> <Angle>
0.994

> <Pdih>
1.552

> <Idih>
0.000

> <Tether>
0.000

$$$$
VeraChem MOL file


 26 25  0  0  0  0  0  0  0  0999 V2000     
   20.2782   18.1591   25.7981 N   0  3  0  0  0  0  0  0  0  0  0  0
   21.2659   17.9525   25.5835 H   0  0  0  0  0  0  0  0  0  0  0  0
   19.8640   17.2478   26.0505 H   0  0  0  0  0  0  0  0  0  0  0  0
   19.5774   18.7128   24.5687 C   0  0  0  0  0  0  0  0  0  0  0  0
   18.5507   18.9608   24.8490 H   0  0  0  0  0  0  0  0  0  0  0  0
   19.5431   17.9094   23.8289 H   0  0  0  0  0  0  0  0  0  0  0  0
   20.2625   19.9452   23.9407 C   0  0  0  0  0  0  0  0  0  0  0  0
   20.2977   20.7584   24.6769 H   0  0  0  0  0  0  0  0  0  0  0  0
   21.3056   19.7051   23.6997 H   0  0  0  0  0  0  0  0  0  0  0  0
   19.5295   20.4580   22.6757 C   0  0  0  0  0  0  0  0  0  0  0  0
   20.0653   21.3337   22.2841 H   0  0  0  0  0  0  0  0  0  0  0  0
   18.5328   20.8192   22.9648 H   0  0  0  0  0  0  0  0  0  0  0  0
   19.3693   19.4120   21.5418 C   0  0  0  0  0  0  0  0  0  0  0  0
   18.7412   18.5788   21.8843 H   0  0  0  0  0  0  0  0  0  0  0  0
   18.8209   19.8818   20.7136 H   0  0  0  0  0  0  0  0  0  0  0  0
   20.7146   18.8661   21.0073 C   0  0  0  0  0  0  0  0  0  0  0  0
   21.2465   18.3252   21.8013 H   0  0  0  0  0  0  0  0  0  0  0  0
   21.3599   19.7021   20.7033 H   0  0  0  0  0  0  0  0  0  0  0  0
   20.5077   17.9167   19.8078 C   0  0  0  0  0  0  0  0  0  0  0  0
   19.8903   17.0538   20.0893 H   0  0  0  0  0  0  0  0  0  0  0  0
   21.4710   17.5369   19.4434 H   0  0  0  0  0  0  0  0  0  0  0  0
   20.0133   18.4337   18.9751 H   0  0  0  0  0  0  0  0  0  0  0  0
   20.1688   19.1200   26.9767 C   0  0  0  0  0  0  0  0  0  0  0  0
   19.1142   19.3056   27.1916 H   0  0  0  0  0  0  0  0  0  0  0  0
   20.6493   18.6713   27.8490 H   0  0  0  0  0  0  0  0  0  0  0  0
   20.6670   20.0586   26.7261 H   0  0  0  0  0  0  0  0  0  0  0  0
  1  2  1  0  0  0  0
  1  3  1  0  0  0  0
  1  4  1  0  0  0  0
  4  5  1  0  0  0  0
  4  6  1  0  0  0  0
  4  7  1  0  0  0  0
  7  8  1  0  0  0  0
  7  9  1  0  0  0  0
  7 10  1  0  0  0  0
 10 11  1  0  0  0  0
 10 12  1  0  0  0  0
 10 13  1  0  0  0  0
 13 14  1  0  0  0  0
 13 15  1  0  0  0  0
 13 16  1  0  0  0  0
 16 17  1  0  0  0  0
 16 18  1  0  0  0  0
 16 19  1  0  0  0  0
 19 20  1  0  0  0  0
 19 21  1  0  0  0  0
 19 22  1  0  0  0  0
  1 23  1  0  0  0  0
 23 24  1  0  0  0  0
 23 25  1  0  0  0  0
 23 26  1  0  0  0  0
M  END
> <VM2 Rank>
64

> <Conf_Id>
862

> <Probability>
0.50

> <Sum Probability>
88.70

> <Delta G>
1.565

> <G>
77.031

> <E>
44.359

> <-TS>
32.672

> <U+W>
22.897

> <U>
72.548

> <W>
-49.651

> <W(PB)>
-51.930

> <W(SA)>
2.279

> <Valence>
2.777

> <Coulomb>
69.321

> <VdW>
0.451

> <VdW6>
-7.543

> <VdW12>
7.993

> <Bond>
0.232

> <Angle>
0.994

> <Pdih>
1.552

> <Idih>
0.000

> <Tether>
0.000

$$$$
VeraChem MOL file


 26 25  0  0  0  0  0  0  0  0999 V2000     
   20.1854   18.3307   26.1372 N   0  3  0  0  0  0  0  0  0  0  0  0
   20.9691   17.7219   25.8554 H   0  0  0  0  0  0  0  0  0  0  0  0
   19.6645   17.7851   26.8422 H   0  0  0  0  0  0  0  0  0  0  0  0
   19.2848   18.6133   24.9463 C   0  0  0  0  0  0  0  0  0  0  0  0
   18.4918   19.2888   25.2767 H   0  0  0  0  0  0  0  0  0  0  0  0
   18.8238   17.6657   24.6559 H   0  0  0  0  0  0  0  0  0  0  0  0
   20.0089   19.2129   23.7238 C   0  0  0  0  0  0  0  0  0  0  0  0
   20.4489   20.1822   23.9912 H   0  0  0  0  0  0  0  0  0  0  0  0
   20.8348   18.5496   23.4380 H   0  0  0  0  0  0  0  0  0  0  0  0
   19.0401   19.3978   22.5323 C   0  0  0  0  0  0  0  0  0  0  0  0
   18.1806   19.9981   22.8618 H   0  0  0  0  0  0  0  0  0  0  0  0
   18.6301   18.4243   22.2322 H   0  0  0  0  0  0  0  0  0  0  0  0
   19.6862   20.1002   21.3098 C   0  0  0  0  0  0  0  0  0  0  0  0
   18.9214   20.2254   20.5309 H   0  0  0  0  0  0  0  0  0  0  0  0
   19.9878   21.1162   21.5997 H   0  0  0  0  0  0  0  0  0  0  0  0
   20.9100   19.3718   20.6974 C   0  0  0  0  0  0  0  0  0  0  0  0
   21.7362   19.3432   21.4203 H   0  0  0  0  0  0  0  0  0  0  0  0
   21.2774   19.9617   19.8460 H   0  0  0  0  0  0  0  0  0  0  0  0
   20.5931   17.9397   20.2100 C   0  0  0  0  0  0  0  0  0  0  0  0
   20.3336   17.2783   21.0460 H   0  0  0  0  0  0  0  0  0  0  0  0
   21.4639   17.5045   19.7029 H   0  0  0  0  0  0  0  0  0  0  0  0
   19.7565   17.9407   19.4992 H   0  0  0  0  0  0  0  0  0  0  0  0
   20.6997   19.6236   26.7603 C   0  0  0  0  0  0  0  0  0  0  0  0
   21.3035   20.1631   26.0279 H   0  0  0  0  0  0  0  0  0  0  0  0
   19.8496   20.2379   27.0650 H   0  0  0  0  0  0  0  0  0  0  0  0
   21.3108   19.3813   27.6325 H   0  0  0  0  0  0  0  0  0  0  0  0
  1  2  1  0  0  0  0
  1  3  1  0  0  0  0
  1  4  1  0  0  0  0
  4  5  1  0  0  0  0
  4  6  1  0  0  0  0
  4  7  1  0  0  0  0
  7  8  1  0  0  0  0
  7  9  1  0  0  0  0
  7 10  1  0  0  0  0
 10 11  1  0  0  0  0
 10 12  1  0  0  0  0
 10 13  1  0  0  0  0
 13 14  1  0  0  0  0
 13 15  1  0  0  0  0
 13 16  1  0  0  0  0
 16 17  1  0  0  0  0
 16 18  1  0  0  0  0
 16 19  1  0  0  0  0
 19 20  1  0  0  0  0
 19 21  1  0  0  0  0
 19 22  1  0  0  0  0
  1 23  1  0  0  0  0
 23 24  1  0  0  0  0
 23 25  1  0  0  0  0
 23 26  1  0  0  0  0
M  END
> <VM2 Rank>
65

> <Conf_Id>
853

> <Probability>
0.50

> <Sum Probability>
89.20

> <Delta G>
1.569

> <G>
77.035

> <E>
44.274

> <-TS>
32.761

> <U+W>
22.812

> <U>
72.256

> <W>
-49.444

> <W(PB)>
-51.705

> <W(SA)>
2.261

> <Valence>
2.959

> <Coulomb>
68.784

> <VdW>
0.514

> <VdW6>
-7.552

> <VdW12>
8.066

> <Bond>
0.241

> <Angle>
1.124

> <Pdih>
1.594

> <Idih>
0.000

> <Tether>
0.000

$$$$
VeraChem MOL file


 26 25  0  0  0  0  0  0  0  0999 V2000     
   20.5621   18.8381   26.3066 N   0  3  0  0  0  0  0  0  0  0  0  0
   21.4303   19.1543   26.7673 H   0  0  0  0  0  0  0  0  0  0  0  0
   20.6144   17.8078   26.3191 H   0  0  0  0  0  0  0  0  0  0  0  0
   20.5329   19.3456   24.8746 C   0  0  0  0  0  0  0  0  0  0  0  0
   21.5029   19.1099   24.4309 H   0  0  0  0  0  0  0  0  0  0  0  0
   20.4287   20.4331   24.9050 H   0  0  0  0  0  0  0  0  0  0  0  0
   19.4155   18.7355   24.0013 C   0  0  0  0  0  0  0  0  0  0  0  0
   19.5060   17.6412   23.9977 H   0  0  0  0  0  0  0  0  0  0  0  0
   18.4389   18.9677   24.4451 H   0  0  0  0  0  0  0  0  0  0  0  0
   19.4353   19.2634   22.5470 C   0  0  0  0  0  0  0  0  0  0  0  0
   19.3389   20.3580   22.5535 H   0  0  0  0  0  0  0  0  0  0  0  0
   18.5480   18.8761   22.0298 H   0  0  0  0  0  0  0  0  0  0  0  0
   20.7110   18.8544   21.7671 C   0  0  0  0  0  0  0  0  0  0  0  0
   21.5996   19.2233   22.2958 H   0  0  0  0  0  0  0  0  0  0  0  0
   20.7969   17.7592   21.7453 H   0  0  0  0  0  0  0  0  0  0  0  0
   20.7510   19.4035   20.3201 C   0  0  0  0  0  0  0  0  0  0  0  0
   21.7315   19.1696   19.8821 H   0  0  0  0  0  0  0  0  0  0  0  0
   20.6762   20.4999   20.3361 H   0  0  0  0  0  0  0  0  0  0  0  0
   19.6482   18.8199   19.4074 C   0  0  0  0  0  0  0  0  0  0  0  0
   19.7822   19.1658   18.3743 H   0  0  0  0  0  0  0  0  0  0  0  0
   18.6479   19.1326   19.7313 H   0  0  0  0  0  0  0  0  0  0  0  0
   19.6808   17.7227   19.4003 H   0  0  0  0  0  0  0  0  0  0  0  0
   19.3520   19.3296   27.0929 C   0  0  0  0  0  0  0  0  0  0  0  0
   19.3332   20.4215   27.0770 H   0  0  0  0  0  0  0  0  0  0  0  0
   18.4406   18.9363   26.6383 H   0  0  0  0  0  0  0  0  0  0  0  0
   19.4290   18.9773   28.1239 H   0  0  0  0  0  0  0  0  0  0  0  0
  1  2  1  0  0  0  0
  1  3  1  0  0  0  0
  1  4  1  0  0  0  0
  4  5  1  0  0  0  0
  4  6  1  0  0  0  0
  4  7  1  0  0  0  0
  7  8  1  0  0  0  0
  7  9  1  0  0  0  0
  7 10  1  0  0  0  0
 10 11  1  0  0  0  0
 10 12  1  0  0  0  0
 10 13  1  0  0  0  0
 13 14  1  0  0  0  0
 13 15  1  0  0  0  0
 13 16  1  0  0  0  0
 16 17  1  0  0  0  0
 16 18  1  0  0  0  0
 16 19  1  0  0  0  0
 19 20  1  0  0  0  0
 19 21  1  0  0  0  0
 19 22  1  0  0  0  0
  1 23  1  0  0  0  0
 23 24  1  0  0  0  0
 23 25  1  0  0  0  0
 23 26  1  0  0  0  0
M  END
> <VM2 Rank>
66

> <Conf_Id>
570

> <Probability>
0.50

> <Sum Probability>
89.70

> <Delta G>
1.570

> <G>
77.036

> <E>
44.526

> <-TS>
32.510

> <U+W>
23.064

> <U>
72.298

> <W>
-49.234

> <W(PB)>
-51.502

> <W(SA)>
2.268

> <Valence>
2.869

> <Coulomb>
68.765

> <VdW>
0.665

> <VdW6>
-7.141

> <VdW12>
7.806

> <Bond>
0.230

> <Angle>
0.882

> <Pdih>
1.756

> <Idih>
0.000

> <Tether>
0.000

$$$$
VeraChem MOL file


 26 25  0  0  0  0  0  0  0  0999 V2000     
   19.3880   18.7181   26.2651 N   0  3  0  0  0  0  0  0  0  0  0  0
   19.5443   17.6984   26.2812 H   0  0  0  0  0  0  0  0  0  0  0  0
   18.4438   18.8490   26.6615 H   0  0  0  0  0  0  0  0  0  0  0  0
   19.4143   19.2313   24.8350 C   0  0  0  0  0  0  0  0  0  0  0  0
   19.2943   20.3171   24.8648 H   0  0  0  0  0  0  0  0  0  0  0  0
   18.5454   18.8076   24.3261 H   0  0  0  0  0  0  0  0  0  0  0  0
   20.6903   18.8657   24.0465 C   0  0  0  0  0  0  0  0  0  0  0  0
   21.5663   19.2873   24.5559 H   0  0  0  0  0  0  0  0  0  0  0  0
   20.8232   17.7758   24.0444 H   0  0  0  0  0  0  0  0  0  0  0  0
   20.6662   19.3892   22.5906 C   0  0  0  0  0  0  0  0  0  0  0  0
   21.6475   19.1928   22.1396 H   0  0  0  0  0  0  0  0  0  0  0  0
   20.5388   20.4806   22.5960 H   0  0  0  0  0  0  0  0  0  0  0  0
   19.5572   18.7365   21.7262 C   0  0  0  0  0  0  0  0  0  0  0  0
   19.6961   17.6467   21.7062 H   0  0  0  0  0  0  0  0  0  0  0  0
   18.5776   18.9145   22.1888 H   0  0  0  0  0  0  0  0  0  0  0  0
   19.5085   19.2766   20.2761 C   0  0  0  0  0  0  0  0  0  0  0  0
   19.3591   20.3653   20.2895 H   0  0  0  0  0  0  0  0  0  0  0  0
   18.6286   18.8526   19.7723 H   0  0  0  0  0  0  0  0  0  0  0  0
   20.7676   18.9343   19.4471 C   0  0  0  0  0  0  0  0  0  0  0  0
   21.6590   19.4402   19.8378 H   0  0  0  0  0  0  0  0  0  0  0  0
   20.6391   19.2533   18.4046 H   0  0  0  0  0  0  0  0  0  0  0  0
   20.9579   17.8532   19.4455 H   0  0  0  0  0  0  0  0  0  0  0  0
   20.4158   19.4384   27.1306 C   0  0  0  0  0  0  0  0  0  0  0  0
   20.2146   20.5117   27.1082 H   0  0  0  0  0  0  0  0  0  0  0  0
   20.3395   19.0705   28.1562 H   0  0  0  0  0  0  0  0  0  0  0  0
   21.4174   19.2406   26.7438 H   0  0  0  0  0  0  0  0  0  0  0  0
  1  2  1  0  0  0  0
  1  3  1  0  0  0  0
  1  4  1  0  0  0  0
  4  5  1  0  0  0  0
  4  6  1  0  0  0  0
  4  7  1  0  0  0  0
  7  8  1  0  0  0  0
  7  9  1  0  0  0  0
  7 10  1  0  0  0  0
 10 11  1  0  0  0  0
 10 12  1  0  0  0  0
 10 13  1  0  0  0  0
 13 14  1  0  0  0  0
 13 15  1  0  0  0  0
 13 16  1  0  0  0  0
 16 17  1  0  0  0  0
 16 18  1  0  0  0  0
 16 19  1  0  0  0  0
 19 20  1  0  0  0  0
 19 21  1  0  0  0  0
 19 22  1  0  0  0  0
  1 23  1  0  0  0  0
 23 24  1  0  0  0  0
 23 25  1  0  0  0  0
 23 26  1  0  0  0  0
M  END
> <VM2 Rank>
67

> <Conf_Id>
542

> <Probability>
0.48

> <Sum Probability>
90.18

> <Delta G>
1.589

> <G>
77.055

> <E>
44.545

> <-TS>
32.510

> <U+W>
23.083

> <U>
72.298

> <W>
-49.215

> <W(PB)>
-51.499

> <W(SA)>
2.284

> <Valence>
2.869

> <Coulomb>
68.765

> <VdW>
0.664

> <VdW6>
-7.141

> <VdW12>
7.805

> <Bond>
0.231

> <Angle>
0.882

> <Pdih>
1.757

> <Idih>
0.000

> <Tether>
0.000

$$$$
VeraChem MOL file


 26 25  0  0  0  0  0  0  0  0999 V2000     
   19.4888   18.6620   25.8529 N   0  3  0  0  0  0  0  0  0  0  0  0
   20.0511   17.9294   26.3132 H   0  0  0  0  0  0  0  0  0  0  0  0
   18.6342   18.1865   25.5241 H   0  0  0  0  0  0  0  0  0  0  0  0
   20.2491   19.2434   24.6781 C   0  0  0  0  0  0  0  0  0  0  0  0
   21.1502   19.7249   25.0662 H   0  0  0  0  0  0  0  0  0  0  0  0
   19.6191   20.0094   24.2195 H   0  0  0  0  0  0  0  0  0  0  0  0
   20.6378   18.1908   23.6226 C   0  0  0  0  0  0  0  0  0  0  0  0
   21.2404   17.4074   24.1009 H   0  0  0  0  0  0  0  0  0  0  0  0
   19.7346   17.6961   23.2431 H   0  0  0  0  0  0  0  0  0  0  0  0
   21.4447   18.7943   22.4463 C   0  0  0  0  0  0  0  0  0  0  0  0
   21.7059   17.9935   21.7417 H   0  0  0  0  0  0  0  0  0  0  0  0
   22.4018   19.1737   22.8303 H   0  0  0  0  0  0  0  0  0  0  0  0
   20.7273   19.9419   21.6851 C   0  0  0  0  0  0  0  0  0  0  0  0
   20.6179   20.8088   22.3505 H   0  0  0  0  0  0  0  0  0  0  0  0
   21.3777   20.2796   20.8664 H   0  0  0  0  0  0  0  0  0  0  0  0
   19.3378   19.5790   21.1020 C   0  0  0  0  0  0  0  0  0  0  0  0
   18.9259   20.4661   20.6007 H   0  0  0  0  0  0  0  0  0  0  0  0
   18.6363   19.3396   21.9124 H   0  0  0  0  0  0  0  0  0  0  0  0
   19.3835   18.4121   20.0895 C   0  0  0  0  0  0  0  0  0  0  0  0
   20.0881   18.6240   19.2750 H   0  0  0  0  0  0  0  0  0  0  0  0
   18.3936   18.2508   19.6435 H   0  0  0  0  0  0  0  0  0  0  0  0
   19.6861   17.4736   20.5702 H   0  0  0  0  0  0  0  0  0  0  0  0
   19.1390   19.7664   26.8406 C   0  0  0  0  0  0  0  0  0  0  0  0
   18.5923   19.3345   27.6819 H   0  0  0  0  0  0  0  0  0  0  0  0
   20.0595   20.2323   27.1992 H   0  0  0  0  0  0  0  0  0  0  0  0
   18.5172   20.5120   26.3404 H   0  0  0  0  0  0  0  0  0  0  0  0
  1  2  1  0  0  0  0
  1  3  1  0  0  0  0
  1  4  1  0  0  0  0
  4  5  1  0  0  0  0
  4  6  1  0  0  0  0
  4  7  1  0  0  0  0
  7  8  1  0  0  0  0
  7  9  1  0  0  0  0
  7 10  1  0  0  0  0
 10 11  1  0  0  0  0
 10 12  1  0  0  0  0
 10 13  1  0  0  0  0
 13 14  1  0  0  0  0
 13 15  1  0  0  0  0
 13 16  1  0  0  0  0
 16 17  1  0  0  0  0
 16 18  1  0  0  0  0
 16 19  1  0  0  0  0
 19 20  1  0  0  0  0
 19 21  1  0  0  0  0
 19 22  1  0  0  0  0
  1 23  1  0  0  0  0
 23 24  1  0  0  0  0
 23 25  1  0  0  0  0
 23 26  1  0  0  0  0
M  END
> <VM2 Rank>
68

> <Conf_Id>
1324

> <Probability>
0.41

> <Sum Probability>
90.58

> <Delta G>
1.690

> <G>
77.156

> <E>
44.327

> <-TS>
32.829

> <U+W>
22.866

> <U>
72.455

> <W>
-49.589

> <W(PB)>
-51.824

> <W(SA)>
2.234

> <Valence>
2.909

> <Coulomb>
69.435

> <VdW>
0.111

> <VdW6>
-7.765

> <VdW12>
7.877

> <Bond>
0.233

> <Angle>
1.170

> <Pdih>
1.506

> <Idih>
0.000

> <Tether>
0.000

$$$$
VeraChem MOL file


 26 25  0  0  0  0  0  0  0  0999 V2000     
   20.2792   18.9154   25.6472 N   0  3  0  0  0  0  0  0  0  0  0  0
   20.9349   18.2738   25.1768 H   0  0  0  0  0  0  0  0  0  0  0  0
   19.6968   18.3191   26.2554 H   0  0  0  0  0  0  0  0  0  0  0  0
   19.4123   19.6151   24.6189 C   0  0  0  0  0  0  0  0  0  0  0  0
   20.0607   20.2419   24.0019 H   0  0  0  0  0  0  0  0  0  0  0  0
   18.7204   20.2677   25.1574 H   0  0  0  0  0  0  0  0  0  0  0  0
   18.6132   18.6505   23.7190 C   0  0  0  0  0  0  0  0  0  0  0  0
   17.9359   18.0535   24.3439 H   0  0  0  0  0  0  0  0  0  0  0  0
   17.9665   19.2395   23.0562 H   0  0  0  0  0  0  0  0  0  0  0  0
   19.4991   17.6985   22.8727 C   0  0  0  0  0  0  0  0  0  0  0  0
   18.8494   17.0898   22.2287 H   0  0  0  0  0  0  0  0  0  0  0  0
   20.0057   16.9869   23.5384 H   0  0  0  0  0  0  0  0  0  0  0  0
   20.5632   18.4058   21.9937 C   0  0  0  0  0  0  0  0  0  0  0  0
   21.2815   18.9417   22.6285 H   0  0  0  0  0  0  0  0  0  0  0  0
   21.1428   17.6362   21.4652 H   0  0  0  0  0  0  0  0  0  0  0  0
   19.9586   19.3800   20.9552 C   0  0  0  0  0  0  0  0  0  0  0  0
   19.4314   20.1977   21.4644 H   0  0  0  0  0  0  0  0  0  0  0  0
   19.2136   18.8534   20.3424 H   0  0  0  0  0  0  0  0  0  0  0  0
   21.0449   19.9799   20.0371 C   0  0  0  0  0  0  0  0  0  0  0  0
   20.5992   20.6697   19.3087 H   0  0  0  0  0  0  0  0  0  0  0  0
   21.5689   19.1934   19.4785 H   0  0  0  0  0  0  0  0  0  0  0  0
   21.7888   20.5393   20.6192 H   0  0  0  0  0  0  0  0  0  0  0  0
   21.0375   19.9448   26.4732 C   0  0  0  0  0  0  0  0  0  0  0  0
   21.6580   19.4276   27.2085 H   0  0  0  0  0  0  0  0  0  0  0  0
   21.6693   20.5415   25.8116 H   0  0  0  0  0  0  0  0  0  0  0  0
   20.3219   20.5923   26.9848 H   0  0  0  0  0  0  0  0  0  0  0  0
  1  2  1  0  0  0  0
  1  3  1  0  0  0  0
  1  4  1  0  0  0  0
  4  5  1  0  0  0  0
  4  6  1  0  0  0  0
  4  7  1  0  0  0  0
  7  8  1  0  0  0  0
  7  9  1  0  0  0  0
  7 10  1  0  0  0  0
 10 11  1  0  0  0  0
 10 12  1  0  0  0  0
 10 13  1  0  0  0  0
 13 14  1  0  0  0  0
 13 15  1  0  0  0  0
 13 16  1  0  0  0  0
 16 17  1  0  0  0  0
 16 18  1  0  0  0  0
 16 19  1  0  0  0  0
 19 20  1  0  0  0  0
 19 21  1  0  0  0  0
 19 22  1  0  0  0  0
  1 23  1  0  0  0  0
 23 24  1  0  0  0  0
 23 25  1  0  0  0  0
 23 26  1  0  0  0  0
M  END
> <VM2 Rank>
69

> <Conf_Id>
108

> <Probability>
0.39

> <Sum Probability>
90.97

> <Delta G>
1.713

> <G>
77.179

> <E>
44.470

> <-TS>
32.708

> <U+W>
23.009

> <U>
72.452

> <W>
-49.444

> <W(PB)>
-51.701

> <W(SA)>
2.257

> <Valence>
2.611

> <Coulomb>
69.807

> <VdW>
0.035

> <VdW6>
-7.730

> <VdW12>
7.764

> <Bond>
0.213

> <Angle>
0.953

> <Pdih>
1.445

> <Idih>
0.000

> <Tether>
0.000

$$$$
VeraChem MOL file


 26 25  0  0  0  0  0  0  0  0999 V2000     
   19.7709   18.8275   25.9222 N   0  3  0  0  0  0  0  0  0  0  0  0
   20.2958   17.9549   26.0885 H   0  0  0  0  0  0  0  0  0  0  0  0
   18.8619   18.5335   25.5345 H   0  0  0  0  0  0  0  0  0  0  0  0
   20.5080   19.6968   24.9216 C   0  0  0  0  0  0  0  0  0  0  0  0
   21.4604   19.9835   25.3747 H   0  0  0  0  0  0  0  0  0  0  0  0
   19.9190   20.6038   24.7635 H   0  0  0  0  0  0  0  0  0  0  0  0
   20.7740   19.0084   23.5683 C   0  0  0  0  0  0  0  0  0  0  0  0
   21.4101   19.6732   22.9708 H   0  0  0  0  0  0  0  0  0  0  0  0
   21.3479   18.0867   23.7319 H   0  0  0  0  0  0  0  0  0  0  0  0
   19.4710   18.6937   22.7911 C   0  0  0  0  0  0  0  0  0  0  0  0
   18.9117   19.6219   22.6137 H   0  0  0  0  0  0  0  0  0  0  0  0
   18.8196   18.0629   23.4101 H   0  0  0  0  0  0  0  0  0  0  0  0
   19.7131   17.9571   21.4478 C   0  0  0  0  0  0  0  0  0  0  0  0
   20.1774   16.9827   21.6533 H   0  0  0  0  0  0  0  0  0  0  0  0
   18.7400   17.7343   20.9889 H   0  0  0  0  0  0  0  0  0  0  0  0
   20.5871   18.7194   20.4190 C   0  0  0  0  0  0  0  0  0  0  0  0
   20.6805   18.1017   19.5148 H   0  0  0  0  0  0  0  0  0  0  0  0
   21.6084   18.8418   20.8037 H   0  0  0  0  0  0  0  0  0  0  0  0
   20.0101   20.0972   20.0219 C   0  0  0  0  0  0  0  0  0  0  0  0
   20.6130   20.5514   19.2250 H   0  0  0  0  0  0  0  0  0  0  0  0
   20.0078   20.7924   20.8706 H   0  0  0  0  0  0  0  0  0  0  0  0
   18.9811   20.0023   19.6516 H   0  0  0  0  0  0  0  0  0  0  0  0
   19.5738   19.5898   27.2251 C   0  0  0  0  0  0  0  0  0  0  0  0
   20.5498   19.8626   27.6326 H   0  0  0  0  0  0  0  0  0  0  0  0
   18.9895   20.4914   27.0288 H   0  0  0  0  0  0  0  0  0  0  0  0
   19.0423   18.9531   27.9358 H   0  0  0  0  0  0  0  0  0  0  0  0
  1  2  1  0  0  0  0
  1  3  1  0  0  0  0
  1  4  1  0  0  0  0
  4  5  1  0  0  0  0
  4  6  1  0  0  0  0
  4  7  1  0  0  0  0
  7  8  1  0  0  0  0
  7  9  1  0  0  0  0
  7 10  1  0  0  0  0
 10 11  1  0  0  0  0
 10 12  1  0  0  0  0
 10 13  1  0  0  0  0
 13 14  1  0  0  0  0
 13 15  1  0  0  0  0
 13 16  1  0  0  0  0
 16 17  1  0  0  0  0
 16 18  1  0  0  0  0
 16 19  1  0  0  0  0
 19 20  1  0  0  0  0
 19 21  1  0  0  0  0
 19 22  1  0  0  0  0
  1 23  1  0  0  0  0
 23 24  1  0  0  0  0
 23 25  1  0  0  0  0
 23 26  1  0  0  0  0
M  END
> <VM2 Rank>
70

> <Conf_Id>
1095

> <Probability>
0.38

> <Sum Probability>
91.36

> <Delta G>
1.726

> <G>
77.192

> <E>
44.522

> <-TS>
32.670

> <U+W>
23.060

> <U>
72.391

> <W>
-49.331

> <W(PB)>
-51.594

> <W(SA)>
2.263

> <Valence>
2.830

> <Coulomb>
69.222

> <VdW>
0.339

> <VdW6>
-7.379

> <VdW12>
7.718

> <Bond>
0.228

> <Angle>
1.104

> <Pdih>
1.498

> <Idih>
0.000

> <Tether>
0.000

$$$$
VeraChem MOL file


 26 25  0  0  0  0  0  0  0  0999 V2000     
   19.6944   18.8564   25.6266 N   0  3  0  0  0  0  0  0  0  0  0  0
   20.3402   18.3843   26.2784 H   0  0  0  0  0  0  0  0  0  0  0  0
   19.2148   18.1000   25.1160 H   0  0  0  0  0  0  0  0  0  0  0  0
   20.4738   19.7224   24.6566 C   0  0  0  0  0  0  0  0  0  0  0  0
   20.9818   20.4963   25.2375 H   0  0  0  0  0  0  0  0  0  0  0  0
   19.7580   20.2112   23.9912 H   0  0  0  0  0  0  0  0  0  0  0  0
   21.5106   18.9433   23.8217 C   0  0  0  0  0  0  0  0  0  0  0  0
   22.0715   19.6543   23.2017 H   0  0  0  0  0  0  0  0  0  0  0  0
   22.2480   18.4892   24.4968 H   0  0  0  0  0  0  0  0  0  0  0  0
   20.8943   17.8395   22.9221 C   0  0  0  0  0  0  0  0  0  0  0  0
   20.4947   17.0363   23.5557 H   0  0  0  0  0  0  0  0  0  0  0  0
   21.6960   17.3775   22.3296 H   0  0  0  0  0  0  0  0  0  0  0  0
   19.7746   18.3261   21.9657 C   0  0  0  0  0  0  0  0  0  0  0  0
   19.3989   17.4600   21.4034 H   0  0  0  0  0  0  0  0  0  0  0  0
   18.9211   18.7033   22.5447 H   0  0  0  0  0  0  0  0  0  0  0  0
   20.2439   19.4087   20.9651 C   0  0  0  0  0  0  0  0  0  0  0  0
   21.1200   19.0458   20.4098 H   0  0  0  0  0  0  0  0  0  0  0  0
   20.5603   20.3116   21.5042 H   0  0  0  0  0  0  0  0  0  0  0  0
   19.1267   19.7861   19.9691 C   0  0  0  0  0  0  0  0  0  0  0  0
   18.2472   20.1817   20.4937 H   0  0  0  0  0  0  0  0  0  0  0  0
   18.8106   18.9148   19.3808 H   0  0  0  0  0  0  0  0  0  0  0  0
   19.4756   20.5561   19.2687 H   0  0  0  0  0  0  0  0  0  0  0  0
   18.6897   19.7075   26.3901 C   0  0  0  0  0  0  0  0  0  0  0  0
   19.2238   20.4814   26.9459 H   0  0  0  0  0  0  0  0  0  0  0  0
   17.9993   20.1704   25.6816 H   0  0  0  0  0  0  0  0  0  0  0  0
   18.1352   19.0715   27.0838 H   0  0  0  0  0  0  0  0  0  0  0  0
  1  2  1  0  0  0  0
  1  3  1  0  0  0  0
  1  4  1  0  0  0  0
  4  5  1  0  0  0  0
  4  6  1  0  0  0  0
  4  7  1  0  0  0  0
  7  8  1  0  0  0  0
  7  9  1  0  0  0  0
  7 10  1  0  0  0  0
 10 11  1  0  0  0  0
 10 12  1  0  0  0  0
 10 13  1  0  0  0  0
 13 14  1  0  0  0  0
 13 15  1  0  0  0  0
 13 16  1  0  0  0  0
 16 17  1  0  0  0  0
 16 18  1  0  0  0  0
 16 19  1  0  0  0  0
 19 20  1  0  0  0  0
 19 21  1  0  0  0  0
 19 22  1  0  0  0  0
  1 23  1  0  0  0  0
 23 24  1  0  0  0  0
 23 25  1  0  0  0  0
 23 26  1  0  0  0  0
M  END
> <VM2 Rank>
71

> <Conf_Id>
204

> <Probability>
0.38

> <Sum Probability>
91.73

> <Delta G>
1.735

> <G>
77.201

> <E>
44.493

> <-TS>
32.708

> <U+W>
23.031

> <U>
72.452

> <W>
-49.421

> <W(PB)>
-51.690

> <W(SA)>
2.270

> <Valence>
2.611

> <Coulomb>
69.807

> <VdW>
0.035

> <VdW6>
-7.729

> <VdW12>
7.764

> <Bond>
0.213

> <Angle>
0.953

> <Pdih>
1.444

> <Idih>
0.000

> <Tether>
0.000

$$$$
VeraChem MOL file


 26 25  0  0  0  0  0  0  0  0999 V2000     
   20.5037   18.7655   25.8888 N   0  3  0  0  0  0  0  0  0  0  0  0
   21.4576   18.4745   25.6242 H   0  0  0  0  0  0  0  0  0  0  0  0
   20.0700   17.9313   26.3138 H   0  0  0  0  0  0  0  0  0  0  0  0
   19.7260   19.1901   24.6596 C   0  0  0  0  0  0  0  0  0  0  0  0
   20.2193   20.0706   24.2408 H   0  0  0  0  0  0  0  0  0  0  0  0
   18.7215   19.4773   24.9801 H   0  0  0  0  0  0  0  0  0  0  0  0
   19.6325   18.0883   23.5870 C   0  0  0  0  0  0  0  0  0  0  0  0
   20.6411   17.7886   23.2753 H   0  0  0  0  0  0  0  0  0  0  0  0
   19.1681   17.1961   24.0275 H   0  0  0  0  0  0  0  0  0  0  0  0
   18.8048   18.5252   22.3528 C   0  0  0  0  0  0  0  0  0  0  0  0
   17.7664   18.7011   22.6662 H   0  0  0  0  0  0  0  0  0  0  0  0
   18.7604   17.6932   21.6374 H   0  0  0  0  0  0  0  0  0  0  0  0
   19.3277   19.7992   21.6355 C   0  0  0  0  0  0  0  0  0  0  0  0
   18.6815   20.0048   20.7710 H   0  0  0  0  0  0  0  0  0  0  0  0
   19.2132   20.6656   22.3008 H   0  0  0  0  0  0  0  0  0  0  0  0
   20.7992   19.7280   21.1537 C   0  0  0  0  0  0  0  0  0  0  0  0
   21.4760   19.6291   22.0129 H   0  0  0  0  0  0  0  0  0  0  0  0
   21.0578   20.6834   20.6762 H   0  0  0  0  0  0  0  0  0  0  0  0
   21.0606   18.5831   20.1488 C   0  0  0  0  0  0  0  0  0  0  0  0
   20.3865   18.6545   19.2855 H   0  0  0  0  0  0  0  0  0  0  0  0
   20.9204   17.5994   20.6138 H   0  0  0  0  0  0  0  0  0  0  0  0
   22.0914   18.6278   19.7744 H   0  0  0  0  0  0  0  0  0  0  0  0
   20.5535   19.9106   26.8908 C   0  0  0  0  0  0  0  0  0  0  0  0
   19.5352   20.1787   27.1807 H   0  0  0  0  0  0  0  0  0  0  0  0
   21.1158   19.5918   27.7714 H   0  0  0  0  0  0  0  0  0  0  0  0
   21.0457   20.7699   26.4301 H   0  0  0  0  0  0  0  0  0  0  0  0
  1  2  1  0  0  0  0
  1  3  1  0  0  0  0
  1  4  1  0  0  0  0
  4  5  1  0  0  0  0
  4  6  1  0  0  0  0
  4  7  1  0  0  0  0
  7  8  1  0  0  0  0
  7  9  1  0  0  0  0
  7 10  1  0  0  0  0
 10 11  1  0  0  0  0
 10 12  1  0  0  0  0
 10 13  1  0  0  0  0
 13 14  1  0  0  0  0
 13 15  1  0  0  0  0
 13 16  1  0  0  0  0
 16 17  1  0  0  0  0
 16 18  1  0  0  0  0
 16 19  1  0  0  0  0
 19 20  1  0  0  0  0
 19 21  1  0  0  0  0
 19 22  1  0  0  0  0
  1 23  1  0  0  0  0
 23 24  1  0  0  0  0
 23 25  1  0  0  0  0
 23 26  1  0  0  0  0
M  END
> <VM2 Rank>
72

> <Conf_Id>
1178

> <Probability>
0.36

> <Sum Probability>
92.09

> <Delta G>
1.762

> <G>
77.228

> <E>
44.400

> <-TS>
32.829

> <U+W>
22.938

> <U>
72.455

> <W>
-49.517

> <W(PB)>
-51.795

> <W(SA)>
2.278

> <Valence>
2.909

> <Coulomb>
69.435

> <VdW>
0.111

> <VdW6>
-7.765

> <VdW12>
7.877

> <Bond>
0.233

> <Angle>
1.170

> <Pdih>
1.506

> <Idih>
0.000

> <Tether>
0.000

$$$$
VeraChem MOL file


 26 25  0  0  0  0  0  0  0  0999 V2000     
   20.1897   18.8701   25.9370 N   0  3  0  0  0  0  0  0  0  0  0  0
   21.1641   18.7669   25.6159 H   0  0  0  0  0  0  0  0  0  0  0  0
   19.8400   17.9089   26.0726 H   0  0  0  0  0  0  0  0  0  0  0  0
   19.3652   19.5809   24.8811 C   0  0  0  0  0  0  0  0  0  0  0  0
   19.7701   20.5886   24.7579 H   0  0  0  0  0  0  0  0  0  0  0  0
   18.3453   19.6678   25.2644 H   0  0  0  0  0  0  0  0  0  0  0  0
   19.3378   18.8625   23.5175 C   0  0  0  0  0  0  0  0  0  0  0  0
   18.9499   17.8435   23.6472 H   0  0  0  0  0  0  0  0  0  0  0  0
   18.6250   19.3908   22.8721 H   0  0  0  0  0  0  0  0  0  0  0  0
   20.7285   18.8202   22.8357 C   0  0  0  0  0  0  0  0  0  0  0  0
   21.4478   18.3278   23.5032 H   0  0  0  0  0  0  0  0  0  0  0  0
   21.1021   19.8428   22.6917 H   0  0  0  0  0  0  0  0  0  0  0  0
   20.7333   18.0601   21.4838 C   0  0  0  0  0  0  0  0  0  0  0  0
   21.7611   18.0394   21.0959 H   0  0  0  0  0  0  0  0  0  0  0  0
   20.4596   17.0111   21.6628 H   0  0  0  0  0  0  0  0  0  0  0  0
   19.7991   18.6402   20.3909 C   0  0  0  0  0  0  0  0  0  0  0  0
   18.7495   18.5534   20.7021 H   0  0  0  0  0  0  0  0  0  0  0  0
   19.8946   18.0230   19.4867 H   0  0  0  0  0  0  0  0  0  0  0  0
   20.1159   20.1084   20.0260 C   0  0  0  0  0  0  0  0  0  0  0  0
   19.9196   20.7836   20.8681 H   0  0  0  0  0  0  0  0  0  0  0  0
   19.4920   20.4390   19.1857 H   0  0  0  0  0  0  0  0  0  0  0  0
   21.1666   20.2236   19.7298 H   0  0  0  0  0  0  0  0  0  0  0  0
   20.1385   19.6475   27.2449 C   0  0  0  0  0  0  0  0  0  0  0  0
   19.1017   19.7163   27.5812 H   0  0  0  0  0  0  0  0  0  0  0  0
   20.7359   19.1254   27.9956 H   0  0  0  0  0  0  0  0  0  0  0  0
   20.5425   20.6493   27.0832 H   0  0  0  0  0  0  0  0  0  0  0  0
  1  2  1  0  0  0  0
  1  3  1  0  0  0  0
  1  4  1  0  0  0  0
  4  5  1  0  0  0  0
  4  6  1  0  0  0  0
  4  7  1  0  0  0  0
  7  8  1  0  0  0  0
  7  9  1  0  0  0  0
  7 10  1  0  0  0  0
 10 11  1  0  0  0  0
 10 12  1  0  0  0  0
 10 13  1  0  0  0  0
 13 14  1  0  0  0  0
 13 15  1  0  0  0  0
 13 16  1  0  0  0  0
 16 17  1  0  0  0  0
 16 18  1  0  0  0  0
 16 19  1  0  0  0  0
 19 20  1  0  0  0  0
 19 21  1  0  0  0  0
 19 22  1  0  0  0  0
  1 23  1  0  0  0  0
 23 24  1  0  0  0  0
 23 25  1  0  0  0  0
 23 26  1  0  0  0  0
M  END
> <VM2 Rank>
73

> <Conf_Id>
996

> <Probability>
0.34

> <Sum Probability>
92.43

> <Delta G>
1.799

> <G>
77.265

> <E>
44.594

> <-TS>
32.670

> <U+W>
23.132

> <U>
72.391

> <W>
-49.259

> <W(PB)>
-51.509

> <W(SA)>
2.250

> <Valence>
2.829

> <Coulomb>
69.222

> <VdW>
0.340

> <VdW6>
-7.379

> <VdW12>
7.719

> <Bond>
0.228

> <Angle>
1.104

> <Pdih>
1.497

> <Idih>
0.000

> <Tether>
0.000

$$$$
VeraChem MOL file


 26 25  0  0  0  0  0  0  0  0999 V2000     
   20.5058   19.4032   25.6188 N   0  3  0  0  0  0  0  0  0  0  0  0
   20.9499   19.9664   24.8780 H   0  0  0  0  0  0  0  0  0  0  0  0
   21.2552   18.8045   25.9989 H   0  0  0  0  0  0  0  0  0  0  0  0
   19.4036   18.5466   25.0271 C   0  0  0  0  0  0  0  0  0  0  0  0
   18.6301   19.2137   24.6396 H   0  0  0  0  0  0  0  0  0  0  0  0
   18.9684   17.9594   25.8398 H   0  0  0  0  0  0  0  0  0  0  0  0
   19.8827   17.5972   23.9094 C   0  0  0  0  0  0  0  0  0  0  0  0
   20.6164   16.8946   24.3262 H   0  0  0  0  0  0  0  0  0  0  0  0
   19.0317   16.9880   23.5769 H   0  0  0  0  0  0  0  0  0  0  0  0
   20.5030   18.3184   22.6858 C   0  0  0  0  0  0  0  0  0  0  0  0
   20.8333   17.5527   21.9719 H   0  0  0  0  0  0  0  0  0  0  0  0
   21.4074   18.8618   22.9901 H   0  0  0  0  0  0  0  0  0  0  0  0
   19.5184   19.2895   21.9856 C   0  0  0  0  0  0  0  0  0  0  0  0
   18.6263   18.7388   21.6567 H   0  0  0  0  0  0  0  0  0  0  0  0
   19.1688   20.0419   22.7047 H   0  0  0  0  0  0  0  0  0  0  0  0
   20.1400   20.0328   20.7782 C   0  0  0  0  0  0  0  0  0  0  0  0
   21.0262   20.5955   21.1034 H   0  0  0  0  0  0  0  0  0  0  0  0
   19.4192   20.7790   20.4156 H   0  0  0  0  0  0  0  0  0  0  0  0
   20.5183   19.0985   19.6062 C   0  0  0  0  0  0  0  0  0  0  0  0
   19.6564   18.5000   19.2838 H   0  0  0  0  0  0  0  0  0  0  0  0
   21.3298   18.4135   19.8808 H   0  0  0  0  0  0  0  0  0  0  0  0
   20.8607   19.6844   18.7434 H   0  0  0  0  0  0  0  0  0  0  0  0
   19.9362   20.3037   26.7059 C   0  0  0  0  0  0  0  0  0  0  0  0
   19.4988   19.6845   27.4922 H   0  0  0  0  0  0  0  0  0  0  0  0
   20.7399   20.9152   27.1222 H   0  0  0  0  0  0  0  0  0  0  0  0
   19.1685   20.9485   26.2726 H   0  0  0  0  0  0  0  0  0  0  0  0
  1  2  1  0  0  0  0
  1  3  1  0  0  0  0
  1  4  1  0  0  0  0
  4  5  1  0  0  0  0
  4  6  1  0  0  0  0
  4  7  1  0  0  0  0
  7  8  1  0  0  0  0
  7  9  1  0  0  0  0
  7 10  1  0  0  0  0
 10 11  1  0  0  0  0
 10 12  1  0  0  0  0
 10 13  1  0  0  0  0
 13 14  1  0  0  0  0
 13 15  1  0  0  0  0
 13 16  1  0  0  0  0
 16 17  1  0  0  0  0
 16 18  1  0  0  0  0
 16 19  1  0  0  0  0
 19 20  1  0  0  0  0
 19 21  1  0  0  0  0
 19 22  1  0  0  0  0
  1 23  1  0  0  0  0
 23 24  1  0  0  0  0
 23 25  1  0  0  0  0
 23 26  1  0  0  0  0
M  END
> <VM2 Rank>
74

> <Conf_Id>
1181

> <Probability>
0.32

> <Sum Probability>
92.75

> <Delta G>
1.831

> <G>
77.297

> <E>
44.768

> <-TS>
32.530

> <U+W>
23.306

> <U>
72.579

> <W>
-49.273

> <W(PB)>
-51.540

> <W(SA)>
2.267

> <Valence>
2.677

> <Coulomb>
69.622

> <VdW>
0.280

> <VdW6>
-7.328

> <VdW12>
7.608

> <Bond>
0.212

> <Angle>
0.911

> <Pdih>
1.555

> <Idih>
0.000

> <Tether>
0.000

$$$$
VeraChem MOL file


 26 25  0  0  0  0  0  0  0  0999 V2000     
   20.0347   19.2283   26.0796 N   0  3  0  0  0  0  0  0  0  0  0  0
   20.6549   19.7300   26.7349 H   0  0  0  0  0  0  0  0  0  0  0  0
   19.8550   18.3167   26.5282 H   0  0  0  0  0  0  0  0  0  0  0  0
   20.7494   19.0298   24.7538 C   0  0  0  0  0  0  0  0  0  0  0  0
   21.7412   18.6272   24.9746 H   0  0  0  0  0  0  0  0  0  0  0  0
   20.8765   20.0122   24.2926 H   0  0  0  0  0  0  0  0  0  0  0  0
   20.0292   18.0789   23.7746 C   0  0  0  0  0  0  0  0  0  0  0  0
   19.8672   17.1115   24.2679 H   0  0  0  0  0  0  0  0  0  0  0  0
   19.0339   18.4709   23.5323 H   0  0  0  0  0  0  0  0  0  0  0  0
   20.8321   17.8485   22.4703 C   0  0  0  0  0  0  0  0  0  0  0  0
   20.2783   17.1526   21.8261 H   0  0  0  0  0  0  0  0  0  0  0  0
   21.7729   17.3376   22.7177 H   0  0  0  0  0  0  0  0  0  0  0  0
   21.1641   19.1399   21.6747 C   0  0  0  0  0  0  0  0  0  0  0  0
   21.8608   19.7580   22.2569 H   0  0  0  0  0  0  0  0  0  0  0  0
   21.7101   18.8597   20.7633 H   0  0  0  0  0  0  0  0  0  0  0  0
   19.9395   20.0037   21.2785 C   0  0  0  0  0  0  0  0  0  0  0  0
   20.2969   20.8896   20.7352 H   0  0  0  0  0  0  0  0  0  0  0  0
   19.4370   20.3855   22.1774 H   0  0  0  0  0  0  0  0  0  0  0  0
   18.9214   19.2530   20.3904 C   0  0  0  0  0  0  0  0  0  0  0  0
   19.4039   18.8523   19.4896 H   0  0  0  0  0  0  0  0  0  0  0  0
   18.1191   19.9295   20.0687 H   0  0  0  0  0  0  0  0  0  0  0  0
   18.4544   18.4195   20.9296 H   0  0  0  0  0  0  0  0  0  0  0  0
   18.7377   20.0080   25.8951 C   0  0  0  0  0  0  0  0  0  0  0  0
   18.2723   20.1628   26.8711 H   0  0  0  0  0  0  0  0  0  0  0  0
   18.9617   20.9734   25.4363 H   0  0  0  0  0  0  0  0  0  0  0  0
   18.0620   19.4398   25.2528 H   0  0  0  0  0  0  0  0  0  0  0  0
  1  2  1  0  0  0  0
  1  3  1  0  0  0  0
  1  4  1  0  0  0  0
  4  5  1  0  0  0  0
  4  6  1  0  0  0  0
  4  7  1  0  0  0  0
  7  8  1  0  0  0  0
  7  9  1  0  0  0  0
  7 10  1  0  0  0  0
 10 11  1  0  0  0  0
 10 12  1  0  0  0  0
 10 13  1  0  0  0  0
 13 14  1  0  0  0  0
 13 15  1  0  0  0  0
 13 16  1  0  0  0  0
 16 17  1  0  0  0  0
 16 18  1  0  0  0  0
 16 19  1  0  0  0  0
 19 20  1  0  0  0  0
 19 21  1  0  0  0  0
 19 22  1  0  0  0  0
  1 23  1  0  0  0  0
 23 24  1  0  0  0  0
 23 25  1  0  0  0  0
 23 26  1  0  0  0  0
M  END
> <VM2 Rank>
75

> <Conf_Id>
797

> <Probability>
0.30

> <Sum Probability>
93.05

> <Delta G>
1.880

> <G>
77.346

> <E>
44.339

> <-TS>
33.007

> <U+W>
22.877

> <U>
72.761

> <W>
-49.885

> <W(PB)>
-52.086

> <W(SA)>
2.202

> <Valence>
3.172

> <Coulomb>
69.298

> <VdW>
0.291

> <VdW6>
-8.615

> <VdW12>
8.906

> <Bond>
0.269

> <Angle>
1.270

> <Pdih>
1.633

> <Idih>
0.000

> <Tether>
0.000

$$$$
VeraChem MOL file


 26 25  0  0  0  0  0  0  0  0999 V2000     
   19.3773   19.2886   25.5789 N   0  3  0  0  0  0  0  0  0  0  0  0
   18.7386   18.5489   25.9098 H   0  0  0  0  0  0  0  0  0  0  0  0
   18.8821   19.7564   24.8048 H   0  0  0  0  0  0  0  0  0  0  0  0
   20.6677   18.6750   25.0719 C   0  0  0  0  0  0  0  0  0  0  0  0
   21.1539   18.1813   25.9172 H   0  0  0  0  0  0  0  0  0  0  0  0
   21.3167   19.4865   24.7348 H   0  0  0  0  0  0  0  0  0  0  0  0
   20.4685   17.6567   23.9301 C   0  0  0  0  0  0  0  0  0  0  0  0
   21.4456   17.2332   23.6623 H   0  0  0  0  0  0  0  0  0  0  0  0
   19.8634   16.8181   24.2995 H   0  0  0  0  0  0  0  0  0  0  0  0
   19.8032   18.2474   22.6610 C   0  0  0  0  0  0  0  0  0  0  0  0
   18.7890   18.5958   22.8973 H   0  0  0  0  0  0  0  0  0  0  0  0
   19.6843   17.4361   21.9312 H   0  0  0  0  0  0  0  0  0  0  0  0
   20.6193   19.4015   22.0247 C   0  0  0  0  0  0  0  0  0  0  0  0
   20.7591   20.2037   22.7612 H   0  0  0  0  0  0  0  0  0  0  0  0
   21.6246   19.0437   21.7632 H   0  0  0  0  0  0  0  0  0  0  0  0
   19.9473   20.0132   20.7713 C   0  0  0  0  0  0  0  0  0  0  0  0
   20.5270   20.8917   20.4550 H   0  0  0  0  0  0  0  0  0  0  0  0
   18.9454   20.3839   21.0294 H   0  0  0  0  0  0  0  0  0  0  0  0
   19.8479   19.0303   19.5823 C   0  0  0  0  0  0  0  0  0  0  0  0
   19.4562   19.5416   18.6934 H   0  0  0  0  0  0  0  0  0  0  0  0
   19.1735   18.1941   19.8041 H   0  0  0  0  0  0  0  0  0  0  0  0
   20.8331   18.6197   19.3256 H   0  0  0  0  0  0  0  0  0  0  0  0
   19.6770   20.2773   26.6968 C   0  0  0  0  0  0  0  0  0  0  0  0
   20.3279   21.0662   26.3137 H   0  0  0  0  0  0  0  0  0  0  0  0
   18.7397   20.7120   27.0514 H   0  0  0  0  0  0  0  0  0  0  0  0
   20.1736   19.7530   27.5161 H   0  0  0  0  0  0  0  0  0  0  0  0
  1  2  1  0  0  0  0
  1  3  1  0  0  0  0
  1  4  1  0  0  0  0
  4  5  1  0  0  0  0
  4  6  1  0  0  0  0
  4  7  1  0  0  0  0
  7  8  1  0  0  0  0
  7  9  1  0  0  0  0
  7 10  1  0  0  0  0
 10 11  1  0  0  0  0
 10 12  1  0  0  0  0
 10 13  1  0  0  0  0
 13 14  1  0  0  0  0
 13 15  1  0  0  0  0
 13 16  1  0  0  0  0
 16 17  1  0  0  0  0
 16 18  1  0  0  0  0
 16 19  1  0  0  0  0
 19 20  1  0  0  0  0
 19 21  1  0  0  0  0
 19 22  1  0  0  0  0
  1 23  1  0  0  0  0
 23 24  1  0  0  0  0
 23 25  1  0  0  0  0
 23 26  1  0  0  0  0
M  END
> <VM2 Rank>
76

> <Conf_Id>
1436

> <Probability>
0.29

> <Sum Probability>
93.34

> <Delta G>
1.887

> <G>
77.353

> <E>
44.823

> <-TS>
32.530

> <U+W>
23.361

> <U>
72.579

> <W>
-49.218

> <W(PB)>
-51.496

> <W(SA)>
2.279

> <Valence>
2.678

> <Coulomb>
69.622

> <VdW>
0.279

> <VdW6>
-7.328

> <VdW12>
7.607

> <Bond>
0.212

> <Angle>
0.911

> <Pdih>
1.555

> <Idih>
0.000

> <Tether>
0.000

$$$$
VeraChem MOL file


 26 25  0  0  0  0  0  0  0  0999 V2000     
   20.4838   18.8322   25.7902 N   0  3  0  0  0  0  0  0  0  0  0  0
   21.0874   18.1522   25.3046 H   0  0  0  0  0  0  0  0  0  0  0  0
   20.4636   18.5185   26.7735 H   0  0  0  0  0  0  0  0  0  0  0  0
   19.0774   18.7876   25.2129 C   0  0  0  0  0  0  0  0  0  0  0  0
   18.4749   19.5228   25.7523 H   0  0  0  0  0  0  0  0  0  0  0  0
   18.6685   17.7966   25.4260 H   0  0  0  0  0  0  0  0  0  0  0  0
   18.9807   19.0547   23.6950 C   0  0  0  0  0  0  0  0  0  0  0  0
   17.9227   19.0203   23.4037 H   0  0  0  0  0  0  0  0  0  0  0  0
   19.3280   20.0730   23.4821 H   0  0  0  0  0  0  0  0  0  0  0  0
   19.7776   18.0252   22.8557 C   0  0  0  0  0  0  0  0  0  0  0  0
   19.4675   17.0117   23.1457 H   0  0  0  0  0  0  0  0  0  0  0  0
   20.8474   18.0939   23.0907 H   0  0  0  0  0  0  0  0  0  0  0  0
   19.5706   18.1819   21.3271 C   0  0  0  0  0  0  0  0  0  0  0  0
   20.1379   17.3943   20.8123 H   0  0  0  0  0  0  0  0  0  0  0  0
   18.5145   17.9960   21.0879 H   0  0  0  0  0  0  0  0  0  0  0  0
   19.9808   19.5579   20.7422 C   0  0  0  0  0  0  0  0  0  0  0  0
   19.3371   20.3500   21.1477 H   0  0  0  0  0  0  0  0  0  0  0  0
   19.7951   19.5465   19.6591 H   0  0  0  0  0  0  0  0  0  0  0  0
   21.4644   19.9146   20.9888 C   0  0  0  0  0  0  0  0  0  0  0  0
   21.6724   20.0560   22.0566 H   0  0  0  0  0  0  0  0  0  0  0  0
   21.7257   20.8490   20.4754 H   0  0  0  0  0  0  0  0  0  0  0  0
   22.1280   19.1266   20.6100 H   0  0  0  0  0  0  0  0  0  0  0  0
   21.0726   20.2358   25.7051 C   0  0  0  0  0  0  0  0  0  0  0  0
   21.1482   20.5327   24.6572 H   0  0  0  0  0  0  0  0  0  0  0  0
   20.4227   20.9303   26.2418 H   0  0  0  0  0  0  0  0  0  0  0  0
   22.0661   20.2346   26.1591 H   0  0  0  0  0  0  0  0  0  0  0  0
  1  2  1  0  0  0  0
  1  3  1  0  0  0  0
  1  4  1  0  0  0  0
  4  5  1  0  0  0  0
  4  6  1  0  0  0  0
  4  7  1  0  0  0  0
  7  8  1  0  0  0  0
  7  9  1  0  0  0  0
  7 10  1  0  0  0  0
 10 11  1  0  0  0  0
 10 12  1  0  0  0  0
 10 13  1  0  0  0  0
 13 14  1  0  0  0  0
 13 15  1  0  0  0  0
 13 16  1  0  0  0  0
 16 17  1  0  0  0  0
 16 18  1  0  0  0  0
 16 19  1  0  0  0  0
 19 20  1  0  0  0  0
 19 21  1  0  0  0  0
 19 22  1  0  0  0  0
  1 23  1  0  0  0  0
 23 24  1  0  0  0  0
 23 25  1  0  0  0  0
 23 26  1  0  0  0  0
M  END
> <VM2 Rank>
77

> <Conf_Id>
475

> <Probability>
0.29

> <Sum Probability>
93.63

> <Delta G>
1.895

> <G>
77.361

> <E>
44.399

> <-TS>
32.963

> <U+W>
22.937

> <U>
72.925

> <W>
-49.989

> <W(PB)>
-52.181

> <W(SA)>
2.192

> <Valence>
3.007

> <Coulomb>
69.583

> <VdW>
0.336

> <VdW6>
-8.608

> <VdW12>
8.943

> <Bond>
0.266

> <Angle>
1.183

> <Pdih>
1.558

> <Idih>
0.000

> <Tether>
0.000

$$$$
VeraChem MOL file


 26 25  0  0  0  0  0  0  0  0999 V2000     
   19.8406   19.2085   26.0727 N   0  3  0  0  0  0  0  0  0  0  0  0
   20.1675   18.3484   26.5391 H   0  0  0  0  0  0  0  0  0  0  0  0
   19.0881   19.5711   26.6794 H   0  0  0  0  0  0  0  0  0  0  0  0
   19.2748   18.8803   24.7015 C   0  0  0  0  0  0  0  0  0  0  0  0
   18.9860   19.8205   24.2257 H   0  0  0  0  0  0  0  0  0  0  0  0
   18.3708   18.2856   24.8553 H   0  0  0  0  0  0  0  0  0  0  0  0
   20.2376   18.0999   23.7819 C   0  0  0  0  0  0  0  0  0  0  0  0
   21.1487   18.6851   23.6072 H   0  0  0  0  0  0  0  0  0  0  0  0
   20.5552   17.1812   24.2922 H   0  0  0  0  0  0  0  0  0  0  0  0
   19.5905   17.7227   22.4263 C   0  0  0  0  0  0  0  0  0  0  0  0
   18.7561   17.0319   22.6107 H   0  0  0  0  0  0  0  0  0  0  0  0
   20.3162   17.1564   21.8274 H   0  0  0  0  0  0  0  0  0  0  0  0
   19.0631   18.9271   21.6002 C   0  0  0  0  0  0  0  0  0  0  0  0
   18.6496   18.5497   20.6548 H   0  0  0  0  0  0  0  0  0  0  0  0
   18.2177   19.3889   22.1277 H   0  0  0  0  0  0  0  0  0  0  0  0
   20.1146   20.0215   21.2848 C   0  0  0  0  0  0  0  0  0  0  0  0
   20.4661   20.4898   22.2139 H   0  0  0  0  0  0  0  0  0  0  0  0
   19.6260   20.8216   20.7115 H   0  0  0  0  0  0  0  0  0  0  0  0
   21.3222   19.4962   20.4756 C   0  0  0  0  0  0  0  0  0  0  0  0
   20.9941   19.0133   19.5461 H   0  0  0  0  0  0  0  0  0  0  0  0
   21.9078   18.7694   21.0521 H   0  0  0  0  0  0  0  0  0  0  0  0
   21.9932   20.3221   20.2061 H   0  0  0  0  0  0  0  0  0  0  0  0
   20.9646   20.2337   25.9739 C   0  0  0  0  0  0  0  0  0  0  0  0
   20.5843   21.1379   25.4937 H   0  0  0  0  0  0  0  0  0  0  0  0
   21.3201   20.4717   26.9790 H   0  0  0  0  0  0  0  0  0  0  0  0
   21.7838   19.8171   25.3844 H   0  0  0  0  0  0  0  0  0  0  0  0
  1  2  1  0  0  0  0
  1  3  1  0  0  0  0
  1  4  1  0  0  0  0
  4  5  1  0  0  0  0
  4  6  1  0  0  0  0
  4  7  1  0  0  0  0
  7  8  1  0  0  0  0
  7  9  1  0  0  0  0
  7 10  1  0  0  0  0
 10 11  1  0  0  0  0
 10 12  1  0  0  0  0
 10 13  1  0  0  0  0
 13 14  1  0  0  0  0
 13 15  1  0  0  0  0
 13 16  1  0  0  0  0
 16 17  1  0  0  0  0
 16 18  1  0  0  0  0
 16 19  1  0  0  0  0
 19 20  1  0  0  0  0
 19 21  1  0  0  0  0
 19 22  1  0  0  0  0
  1 23  1  0  0  0  0
 23 24  1  0  0  0  0
 23 25  1  0  0  0  0
 23 26  1  0  0  0  0
M  END
> <VM2 Rank>
78

> <Conf_Id>
955

> <Probability>
0.29

> <Sum Probability>
93.91

> <Delta G>
1.900

> <G>
77.366

> <E>
44.358

> <-TS>
33.007

> <U+W>
22.897

> <U>
72.761

> <W>
-49.865

> <W(PB)>
-52.061

> <W(SA)>
2.196

> <Valence>
3.172

> <Coulomb>
69.298

> <VdW>
0.291

> <VdW6>
-8.615

> <VdW12>
8.906

> <Bond>
0.269

> <Angle>
1.270

> <Pdih>
1.633

> <Idih>
0.000

> <Tether>
0.000

$$$$
VeraChem MOL file


 26 25  0  0  0  0  0  0  0  0999 V2000     
   20.6780   18.9897   25.4034 N   0  3  0  0  0  0  0  0  0  0  0  0
   21.2853   19.0731   24.5744 H   0  0  0  0  0  0  0  0  0  0  0  0
   20.8722   18.0559   25.7970 H   0  0  0  0  0  0  0  0  0  0  0  0
   19.2226   19.0891   24.9904 C   0  0  0  0  0  0  0  0  0  0  0  0
   19.0556   20.0899   24.5851 H   0  0  0  0  0  0  0  0  0  0  0  0
   18.6141   18.9822   25.8919 H   0  0  0  0  0  0  0  0  0  0  0  0
   18.7944   18.0295   23.9541 C   0  0  0  0  0  0  0  0  0  0  0  0
   18.9146   17.0292   24.3909 H   0  0  0  0  0  0  0  0  0  0  0  0
   17.7215   18.1481   23.7530 H   0  0  0  0  0  0  0  0  0  0  0  0
   19.5762   18.1034   22.6183 C   0  0  0  0  0  0  0  0  0  0  0  0
   19.2055   17.3125   21.9517 H   0  0  0  0  0  0  0  0  0  0  0  0
   20.6345   17.8779   22.8000 H   0  0  0  0  0  0  0  0  0  0  0  0
   19.4359   19.4736   21.9078 C   0  0  0  0  0  0  0  0  0  0  0  0
   18.3693   19.7181   21.8085 H   0  0  0  0  0  0  0  0  0  0  0  0
   19.8793   20.2677   22.5233 H   0  0  0  0  0  0  0  0  0  0  0  0
   20.0803   19.5041   20.5009 C   0  0  0  0  0  0  0  0  0  0  0  0
   19.8445   20.4666   20.0257 H   0  0  0  0  0  0  0  0  0  0  0  0
   19.6267   18.7296   19.8667 H   0  0  0  0  0  0  0  0  0  0  0  0
   21.6154   19.3235   20.5251 C   0  0  0  0  0  0  0  0  0  0  0  0
   22.0317   19.4427   19.5164 H   0  0  0  0  0  0  0  0  0  0  0  0
   21.8989   18.3257   20.8820 H   0  0  0  0  0  0  0  0  0  0  0  0
   22.0911   20.0701   21.1740 H   0  0  0  0  0  0  0  0  0  0  0  0
   21.0051   20.0771   26.4172 C   0  0  0  0  0  0  0  0  0  0  0  0
   20.3708   19.9499   27.2971 H   0  0  0  0  0  0  0  0  0  0  0  0
   22.0556   19.9945   26.7048 H   0  0  0  0  0  0  0  0  0  0  0  0
   20.8216   21.0550   25.9668 H   0  0  0  0  0  0  0  0  0  0  0  0
  1  2  1  0  0  0  0
  1  3  1  0  0  0  0
  1  4  1  0  0  0  0
  4  5  1  0  0  0  0
  4  6  1  0  0  0  0
  4  7  1  0  0  0  0
  7  8  1  0  0  0  0
  7  9  1  0  0  0  0
  7 10  1  0  0  0  0
 10 11  1  0  0  0  0
 10 12  1  0  0  0  0
 10 13  1  0  0  0  0
 13 14  1  0  0  0  0
 13 15  1  0  0  0  0
 13 16  1  0  0  0  0
 16 17  1  0  0  0  0
 16 18  1  0  0  0  0
 16 19  1  0  0  0  0
 19 20  1  0  0  0  0
 19 21  1  0  0  0  0
 19 22  1  0  0  0  0
  1 23  1  0  0  0  0
 23 24  1  0  0  0  0
 23 25  1  0  0  0  0
 23 26  1  0  0  0  0
M  END
> <VM2 Rank>
79

> <Conf_Id>
414

> <Probability>
0.29

> <Sum Probability>
94.20

> <Delta G>
1.901

> <G>
77.367

> <E>
44.799

> <-TS>
32.567

> <U+W>
23.337

> <U>
72.650

> <W>
-49.313

> <W(PB)>
-51.570

> <W(SA)>
2.258

> <Valence>
2.607

> <Coulomb>
69.873

> <VdW>
0.170

> <VdW6>
-7.459

> <VdW12>
7.629

> <Bond>
0.205

> <Angle>
0.826

> <Pdih>
1.577

> <Idih>
0.000

> <Tether>
0.000

$$$$
VeraChem MOL file


 26 25  0  0  0  0  0  0  0  0999 V2000     
   19.7781   18.4157   25.5307 N   0  3  0  0  0  0  0  0  0  0  0  0
   20.3111   17.5769   25.2533 H   0  0  0  0  0  0  0  0  0  0  0  0
   18.8735   18.3437   25.0412 H   0  0  0  0  0  0  0  0  0  0  0  0
   20.5102   19.6685   25.0898 C   0  0  0  0  0  0  0  0  0  0  0  0
   21.4594   19.7034   25.6305 H   0  0  0  0  0  0  0  0  0  0  0  0
   19.9130   20.5323   25.3925 H   0  0  0  0  0  0  0  0  0  0  0  0
   20.7826   19.7317   23.5742 C   0  0  0  0  0  0  0  0  0  0  0  0
   21.3956   20.6190   23.3678 H   0  0  0  0  0  0  0  0  0  0  0  0
   21.3811   18.8601   23.2801 H   0  0  0  0  0  0  0  0  0  0  0  0
   19.4806   19.8018   22.7375 C   0  0  0  0  0  0  0  0  0  0  0  0
   18.8566   20.6226   23.1174 H   0  0  0  0  0  0  0  0  0  0  0  0
   18.8920   18.8858   22.8746 H   0  0  0  0  0  0  0  0  0  0  0  0
   19.7307   20.0384   21.2256 C   0  0  0  0  0  0  0  0  0  0  0  0
   18.7605   20.1143   20.7154 H   0  0  0  0  0  0  0  0  0  0  0  0
   20.2167   21.0148   21.0920 H   0  0  0  0  0  0  0  0  0  0  0  0
   20.5848   18.9547   20.5191 C   0  0  0  0  0  0  0  0  0  0  0  0
   21.6022   18.9436   20.9325 H   0  0  0  0  0  0  0  0  0  0  0  0
   20.6945   19.2312   19.4611 H   0  0  0  0  0  0  0  0  0  0  0  0
   19.9726   17.5379   20.6017 C   0  0  0  0  0  0  0  0  0  0  0  0
   19.9526   17.1675   21.6341 H   0  0  0  0  0  0  0  0  0  0  0  0
   20.5637   16.8285   20.0082 H   0  0  0  0  0  0  0  0  0  0  0  0
   18.9464   17.5280   20.2122 H   0  0  0  0  0  0  0  0  0  0  0  0
   19.5683   18.4415   27.0383 C   0  0  0  0  0  0  0  0  0  0  0  0
   20.5399   18.4864   27.5352 H   0  0  0  0  0  0  0  0  0  0  0  0
   18.9761   19.3200   27.3035 H   0  0  0  0  0  0  0  0  0  0  0  0
   19.0402   17.5349   27.3421 H   0  0  0  0  0  0  0  0  0  0  0  0
  1  2  1  0  0  0  0
  1  3  1  0  0  0  0
  1  4  1  0  0  0  0
  4  5  1  0  0  0  0
  4  6  1  0  0  0  0
  4  7  1  0  0  0  0
  7  8  1  0  0  0  0
  7  9  1  0  0  0  0
  7 10  1  0  0  0  0
 10 11  1  0  0  0  0
 10 12  1  0  0  0  0
 10 13  1  0  0  0  0
 13 14  1  0  0  0  0
 13 15  1  0  0  0  0
 13 16  1  0  0  0  0
 16 17  1  0  0  0  0
 16 18  1  0  0  0  0
 16 19  1  0  0  0  0
 19 20  1  0  0  0  0
 19 21  1  0  0  0  0
 19 22  1  0  0  0  0
  1 23  1  0  0  0  0
 23 24  1  0  0  0  0
 23 25  1  0  0  0  0
 23 26  1  0  0  0  0
M  END
> <VM2 Rank>
80

> <Conf_Id>
844

> <Probability>
0.28

> <Sum Probability>
94.48

> <Delta G>
1.920

> <G>
77.386

> <E>
44.699

> <-TS>
32.687

> <U+W>
23.237

> <U>
72.709

> <W>
-49.472

> <W(PB)>
-51.724

> <W(SA)>
2.252

> <Valence>
2.790

> <Coulomb>
69.679

> <VdW>
0.240

> <VdW6>
-7.473

> <VdW12>
7.713

> <Bond>
0.222

> <Angle>
1.030

> <Pdih>
1.538

> <Idih>
0.000

> <Tether>
0.000

$$$$
VeraChem MOL file


 26 25  0  0  0  0  0  0  0  0999 V2000     
   19.3071   18.8505   25.3550 N   0  3  0  0  0  0  0  0  0  0  0  0
   19.2774   17.8938   25.7405 H   0  0  0  0  0  0  0  0  0  0  0  0
   18.7549   18.8163   24.4850 H   0  0  0  0  0  0  0  0  0  0  0  0
   20.7382   19.2431   25.0441 C   0  0  0  0  0  0  0  0  0  0  0  0
   21.2912   19.2542   25.9867 H   0  0  0  0  0  0  0  0  0  0  0  0
   20.7287   20.2599   24.6444 H   0  0  0  0  0  0  0  0  0  0  0  0
   21.4419   18.2985   24.0478 C   0  0  0  0  0  0  0  0  0  0  0  0
   22.4806   18.6316   23.9215 H   0  0  0  0  0  0  0  0  0  0  0  0
   21.4948   17.2914   24.4823 H   0  0  0  0  0  0  0  0  0  0  0  0
   20.7567   18.2235   22.6601 C   0  0  0  0  0  0  0  0  0  0  0  0
   19.7552   17.7886   22.7689 H   0  0  0  0  0  0  0  0  0  0  0  0
   21.3245   17.5280   22.0267 H   0  0  0  0  0  0  0  0  0  0  0  0
   20.6682   19.5990   21.9515 C   0  0  0  0  0  0  0  0  0  0  0  0
   20.0320   20.2832   22.5288 H   0  0  0  0  0  0  0  0  0  0  0  0
   21.6681   20.0537   21.9258 H   0  0  0  0  0  0  0  0  0  0  0  0
   20.1314   19.5095   20.5026 C   0  0  0  0  0  0  0  0  0  0  0  0
   20.7751   18.8468   19.9073 H   0  0  0  0  0  0  0  0  0  0  0  0
   20.2015   20.5032   20.0385 H   0  0  0  0  0  0  0  0  0  0  0  0
   18.6663   19.0234   20.4200 C   0  0  0  0  0  0  0  0  0  0  0  0
   18.3065   19.0637   19.3837 H   0  0  0  0  0  0  0  0  0  0  0  0
   18.0056   19.6543   21.0286 H   0  0  0  0  0  0  0  0  0  0  0  0
   18.5650   17.9864   20.7630 H   0  0  0  0  0  0  0  0  0  0  0  0
   18.6983   19.8425   26.3359 C   0  0  0  0  0  0  0  0  0  0  0  0
   18.7128   20.8407   25.8928 H   0  0  0  0  0  0  0  0  0  0  0  0
   17.6682   19.5487   26.5498 H   0  0  0  0  0  0  0  0  0  0  0  0
   19.2821   19.8388   27.2590 H   0  0  0  0  0  0  0  0  0  0  0  0
  1  2  1  0  0  0  0
  1  3  1  0  0  0  0
  1  4  1  0  0  0  0
  4  5  1  0  0  0  0
  4  6  1  0  0  0  0
  4  7  1  0  0  0  0
  7  8  1  0  0  0  0
  7  9  1  0  0  0  0
  7 10  1  0  0  0  0
 10 11  1  0  0  0  0
 10 12  1  0  0  0  0
 10 13  1  0  0  0  0
 13 14  1  0  0  0  0
 13 15  1  0  0  0  0
 13 16  1  0  0  0  0
 16 17  1  0  0  0  0
 16 18  1  0  0  0  0
 16 19  1  0  0  0  0
 19 20  1  0  0  0  0
 19 21  1  0  0  0  0
 19 22  1  0  0  0  0
  1 23  1  0  0  0  0
 23 24  1  0  0  0  0
 23 25  1  0  0  0  0
 23 26  1  0  0  0  0
M  END
> <VM2 Rank>
81

> <Conf_Id>
158

> <Probability>
0.27

> <Sum Probability>
94.74

> <Delta G>
1.939

> <G>
77.405

> <E>
44.838

> <-TS>
32.567

> <U+W>
23.376

> <U>
72.650

> <W>
-49.273

> <W(PB)>
-51.526

> <W(SA)>
2.252

> <Valence>
2.608

> <Coulomb>
69.872

> <VdW>
0.170

> <VdW6>
-7.459

> <VdW12>
7.629

> <Bond>
0.205

> <Angle>
0.826

> <Pdih>
1.577

> <Idih>
0.000

> <Tether>
0.000

$$$$
VeraChem MOL file


 26 25  0  0  0  0  0  0  0  0999 V2000     
   20.1251   18.9649   26.4277 N   0  3  0  0  0  0  0  0  0  0  0  0
   20.8142   18.2094   26.5638 H   0  0  0  0  0  0  0  0  0  0  0  0
   19.6834   19.0863   27.3528 H   0  0  0  0  0  0  0  0  0  0  0  0
   19.0648   18.5344   25.4231 C   0  0  0  0  0  0  0  0  0  0  0  0
   18.3603   19.3585   25.2862 H   0  0  0  0  0  0  0  0  0  0  0  0
   18.5221   17.7089   25.8910 H   0  0  0  0  0  0  0  0  0  0  0  0
   19.5887   18.0473   24.0534 C   0  0  0  0  0  0  0  0  0  0  0  0
   20.5551   17.5415   24.1793 H   0  0  0  0  0  0  0  0  0  0  0  0
   18.8902   17.2883   23.6769 H   0  0  0  0  0  0  0  0  0  0  0  0
   19.6966   19.1759   22.9996 C   0  0  0  0  0  0  0  0  0  0  0  0
   20.4035   19.9444   23.3333 H   0  0  0  0  0  0  0  0  0  0  0  0
   18.7207   19.6701   22.8946 H   0  0  0  0  0  0  0  0  0  0  0  0
   20.1500   18.6350   21.6243 C   0  0  0  0  0  0  0  0  0  0  0  0
   21.1244   18.1378   21.7286 H   0  0  0  0  0  0  0  0  0  0  0  0
   19.4399   17.8720   21.2764 H   0  0  0  0  0  0  0  0  0  0  0  0
   20.2557   19.7586   20.5690 C   0  0  0  0  0  0  0  0  0  0  0  0
   20.9675   20.5232   20.9106 H   0  0  0  0  0  0  0  0  0  0  0  0
   19.2828   20.2579   20.4597 H   0  0  0  0  0  0  0  0  0  0  0  0
   20.7087   19.2145   19.1972 C   0  0  0  0  0  0  0  0  0  0  0  0
   21.6956   18.7389   19.2673 H   0  0  0  0  0  0  0  0  0  0  0  0
   20.7778   20.0264   18.4617 H   0  0  0  0  0  0  0  0  0  0  0  0
   19.9977   18.4716   18.8127 H   0  0  0  0  0  0  0  0  0  0  0  0
   20.8183   20.2594   26.0227 C   0  0  0  0  0  0  0  0  0  0  0  0
   21.4851   20.5732   26.8290 H   0  0  0  0  0  0  0  0  0  0  0  0
   21.4011   20.0872   25.1164 H   0  0  0  0  0  0  0  0  0  0  0  0
   20.0659   21.0306   25.8447 H   0  0  0  0  0  0  0  0  0  0  0  0
  1  2  1  0  0  0  0
  1  3  1  0  0  0  0
  1  4  1  0  0  0  0
  4  5  1  0  0  0  0
  4  6  1  0  0  0  0
  4  7  1  0  0  0  0
  7  8  1  0  0  0  0
  7  9  1  0  0  0  0
  7 10  1  0  0  0  0
 10 11  1  0  0  0  0
 10 12  1  0  0  0  0
 10 13  1  0  0  0  0
 13 14  1  0  0  0  0
 13 15  1  0  0  0  0
 13 16  1  0  0  0  0
 16 17  1  0  0  0  0
 16 18  1  0  0  0  0
 16 19  1  0  0  0  0
 19 20  1  0  0  0  0
 19 21  1  0  0  0  0
 19 22  1  0  0  0  0
  1 23  1  0  0  0  0
 23 24  1  0  0  0  0
 23 25  1  0  0  0  0
 23 26  1  0  0  0  0
M  END
> <VM2 Rank>
82

> <Conf_Id>
1342

> <Probability>
0.26

> <Sum Probability>
95.01

> <Delta G>
1.947

> <G>
77.413

> <E>
45.186

> <-TS>
32.226

> <U+W>
23.725

> <U>
72.994

> <W>
-49.269

> <W(PB)>
-51.555

> <W(SA)>
2.285

> <Valence>
3.858

> <Coulomb>
68.737

> <VdW>
0.399

> <VdW6>
-6.843

> <VdW12>
7.242

> <Bond>
0.196

> <Angle>
0.971

> <Pdih>
2.692

> <Idih>
0.000

> <Tether>
0.000

$$$$
VeraChem MOL file


 26 25  0  0  0  0  0  0  0  0999 V2000     
   20.2963   18.4696   25.5488 N   0  3  0  0  0  0  0  0  0  0  0  0
   21.2282   18.5889   25.1241 H   0  0  0  0  0  0  0  0  0  0  0  0
   19.9680   17.5412   25.2409 H   0  0  0  0  0  0  0  0  0  0  0  0
   19.3547   19.5481   25.0490 C   0  0  0  0  0  0  0  0  0  0  0  0
   19.7386   20.5141   25.3864 H   0  0  0  0  0  0  0  0  0  0  0  0
   18.3832   19.3830   25.5219 H   0  0  0  0  0  0  0  0  0  0  0  0
   19.1815   19.5650   23.5176 C   0  0  0  0  0  0  0  0  0  0  0  0
   18.7974   18.5911   23.1887 H   0  0  0  0  0  0  0  0  0  0  0  0
   18.4147   20.3085   23.2626 H   0  0  0  0  0  0  0  0  0  0  0  0
   20.4961   19.9081   22.7733 C   0  0  0  0  0  0  0  0  0  0  0  0
   21.2500   19.1322   22.9580 H   0  0  0  0  0  0  0  0  0  0  0  0
   20.9094   20.8373   23.1896 H   0  0  0  0  0  0  0  0  0  0  0  0
   20.3088   20.0988   21.2459 C   0  0  0  0  0  0  0  0  0  0  0  0
   19.6424   20.9547   21.0714 H   0  0  0  0  0  0  0  0  0  0  0  0
   21.2757   20.3767   20.8041 H   0  0  0  0  0  0  0  0  0  0  0  0
   19.7481   18.8671   20.4897 C   0  0  0  0  0  0  0  0  0  0  0  0
   19.6581   19.1225   19.4246 H   0  0  0  0  0  0  0  0  0  0  0  0
   18.7285   18.6435   20.8310 H   0  0  0  0  0  0  0  0  0  0  0  0
   20.6320   17.6065   20.6256 C   0  0  0  0  0  0  0  0  0  0  0  0
   21.6629   17.8112   20.3089 H   0  0  0  0  0  0  0  0  0  0  0  0
   20.2429   16.7946   19.9976 H   0  0  0  0  0  0  0  0  0  0  0  0
   20.6556   17.2409   21.6596 H   0  0  0  0  0  0  0  0  0  0  0  0
   20.3906   18.5268   27.0671 C   0  0  0  0  0  0  0  0  0  0  0  0
   19.3983   18.3672   27.4947 H   0  0  0  0  0  0  0  0  0  0  0  0
   21.0714   17.7460   27.4135 H   0  0  0  0  0  0  0  0  0  0  0  0
   20.7696   19.5064   27.3667 H   0  0  0  0  0  0  0  0  0  0  0  0
  1  2  1  0  0  0  0
  1  3  1  0  0  0  0
  1  4  1  0  0  0  0
  4  5  1  0  0  0  0
  4  6  1  0  0  0  0
  4  7  1  0  0  0  0
  7  8  1  0  0  0  0
  7  9  1  0  0  0  0
  7 10  1  0  0  0  0
 10 11  1  0  0  0  0
 10 12  1  0  0  0  0
 10 13  1  0  0  0  0
 13 14  1  0  0  0  0
 13 15  1  0  0  0  0
 13 16  1  0  0  0  0
 16 17  1  0  0  0  0
 16 18  1  0  0  0  0
 16 19  1  0  0  0  0
 19 20  1  0  0  0  0
 19 21  1  0  0  0  0
 19 22  1  0  0  0  0
  1 23  1  0  0  0  0
 23 24  1  0  0  0  0
 23 25  1  0  0  0  0
 23 26  1  0  0  0  0
M  END
> <VM2 Rank>
83

> <Conf_Id>
1237

> <Probability>
0.26

> <Sum Probability>
95.26

> <Delta G>
1.963

> <G>
77.429

> <E>
44.742

> <-TS>
32.687

> <U+W>
23.281

> <U>
72.710

> <W>
-49.429

> <W(PB)>
-51.678

> <W(SA)>
2.249

> <Valence>
2.790

> <Coulomb>
69.680

> <VdW>
0.240

> <VdW6>
-7.473

> <VdW12>
7.714

> <Bond>
0.222

> <Angle>
1.030

> <Pdih>
1.537

> <Idih>
0.000

> <Tether>
0.000

$$$$
VeraChem MOL file


 26 25  0  0  0  0  0  0  0  0999 V2000     
   20.1777   18.5101   26.0021 N   0  3  0  0  0  0  0  0  0  0  0  0
   21.1127   18.2714   25.6395 H   0  0  0  0  0  0  0  0  0  0  0  0
   19.9879   17.8087   26.7355 H   0  0  0  0  0  0  0  0  0  0  0  0
   19.1401   18.3844   24.8973 C   0  0  0  0  0  0  0  0  0  0  0  0
   18.1707   18.6547   25.3236 H   0  0  0  0  0  0  0  0  0  0  0  0
   19.0974   17.3314   24.6077 H   0  0  0  0  0  0  0  0  0  0  0  0
   19.4058   19.2400   23.6391 C   0  0  0  0  0  0  0  0  0  0  0  0
   18.5650   19.0930   22.9501 H   0  0  0  0  0  0  0  0  0  0  0  0
   19.4063   20.3047   23.9053 H   0  0  0  0  0  0  0  0  0  0  0  0
   20.7331   18.8693   22.9311 C   0  0  0  0  0  0  0  0  0  0  0  0
   20.7201   17.8080   22.6495 H   0  0  0  0  0  0  0  0  0  0  0  0
   21.5660   18.9849   23.6370 H   0  0  0  0  0  0  0  0  0  0  0  0
   21.0374   19.7437   21.6869 C   0  0  0  0  0  0  0  0  0  0  0  0
   21.1524   20.7892   22.0046 H   0  0  0  0  0  0  0  0  0  0  0  0
   22.0128   19.4458   21.2782 H   0  0  0  0  0  0  0  0  0  0  0  0
   19.9811   19.6796   20.5539 C   0  0  0  0  0  0  0  0  0  0  0  0
   20.3102   20.3316   19.7327 H   0  0  0  0  0  0  0  0  0  0  0  0
   19.0255   20.0952   20.9005 H   0  0  0  0  0  0  0  0  0  0  0  0
   19.7598   18.2543   19.9984 C   0  0  0  0  0  0  0  0  0  0  0  0
   20.7060   17.8101   19.6630 H   0  0  0  0  0  0  0  0  0  0  0  0
   19.0770   18.2781   19.1393 H   0  0  0  0  0  0  0  0  0  0  0  0
   19.3173   17.5925   20.7532 H   0  0  0  0  0  0  0  0  0  0  0  0
   20.1730   19.9087   26.6083 C   0  0  0  0  0  0  0  0  0  0  0  0
   20.9039   19.9493   27.4190 H   0  0  0  0  0  0  0  0  0  0  0  0
   20.4377   20.6365   25.8386 H   0  0  0  0  0  0  0  0  0  0  0  0
   19.1767   20.1271   26.9987 H   0  0  0  0  0  0  0  0  0  0  0  0
  1  2  1  0  0  0  0
  1  3  1  0  0  0  0
  1  4  1  0  0  0  0
  4  5  1  0  0  0  0
  4  6  1  0  0  0  0
  4  7  1  0  0  0  0
  7  8  1  0  0  0  0
  7  9  1  0  0  0  0
  7 10  1  0  0  0  0
 10 11  1  0  0  0  0
 10 12  1  0  0  0  0
 10 13  1  0  0  0  0
 13 14  1  0  0  0  0
 13 15  1  0  0  0  0
 13 16  1  0  0  0  0
 16 17  1  0  0  0  0
 16 18  1  0  0  0  0
 16 19  1  0  0  0  0
 19 20  1  0  0  0  0
 19 21  1  0  0  0  0
 19 22  1  0  0  0  0
  1 23  1  0  0  0  0
 23 24  1  0  0  0  0
 23 25  1  0  0  0  0
 23 26  1  0  0  0  0
M  END
> <VM2 Rank>
84

> <Conf_Id>
535

> <Probability>
0.25

> <Sum Probability>
95.51

> <Delta G>
1.982

> <G>
77.448

> <E>
44.560

> <-TS>
32.888

> <U+W>
23.098

> <U>
72.739

> <W>
-49.641

> <W(PB)>
-51.847

> <W(SA)>
2.206

> <Valence>
3.076

> <Coulomb>
69.128

> <VdW>
0.535

> <VdW6>
-8.276

> <VdW12>
8.810

> <Bond>
0.270

> <Angle>
1.277

> <Pdih>
1.529

> <Idih>
0.000

> <Tether>
0.000

$$$$
VeraChem MOL file


 26 25  0  0  0  0  0  0  0  0999 V2000     
   19.8510   18.4767   25.9905 N   0  3  0  0  0  0  0  0  0  0  0  0
   20.1266   17.8229   26.7405 H   0  0  0  0  0  0  0  0  0  0  0  0
   19.0111   18.0569   25.5651 H   0  0  0  0  0  0  0  0  0  0  0  0
   20.9674   18.5709   24.9620 C   0  0  0  0  0  0  0  0  0  0  0  0
   21.2418   17.5502   24.6836 H   0  0  0  0  0  0  0  0  0  0  0  0
   21.8300   19.0281   25.4533 H   0  0  0  0  0  0  0  0  0  0  0  0
   20.6233   19.3643   23.6823 C   0  0  0  0  0  0  0  0  0  0  0  0
   20.3894   20.4051   23.9402 H   0  0  0  0  0  0  0  0  0  0  0  0
   21.5227   19.3948   23.0549 H   0  0  0  0  0  0  0  0  0  0  0  0
   19.4510   18.7385   22.8857 C   0  0  0  0  0  0  0  0  0  0  0  0
   18.5644   18.6789   23.5307 H   0  0  0  0  0  0  0  0  0  0  0  0
   19.6974   17.7037   22.6134 H   0  0  0  0  0  0  0  0  0  0  0  0
   19.0645   19.5425   21.6170 C   0  0  0  0  0  0  0  0  0  0  0  0
   18.2003   19.0569   21.1431 H   0  0  0  0  0  0  0  0  0  0  0  0
   18.7190   20.5410   21.9183 H   0  0  0  0  0  0  0  0  0  0  0  0
   20.1887   19.7007   20.5612 C   0  0  0  0  0  0  0  0  0  0  0  0
   21.0142   20.2980   20.9710 H   0  0  0  0  0  0  0  0  0  0  0  0
   19.7933   20.2789   19.7144 H   0  0  0  0  0  0  0  0  0  0  0  0
   20.7312   18.3533   20.0328 C   0  0  0  0  0  0  0  0  0  0  0  0
   21.2442   17.7890   20.8215 H   0  0  0  0  0  0  0  0  0  0  0  0
   21.4537   18.5205   19.2235 H   0  0  0  0  0  0  0  0  0  0  0  0
   19.9200   17.7299   19.6352 H   0  0  0  0  0  0  0  0  0  0  0  0
   19.5309   19.8431   26.5855 C   0  0  0  0  0  0  0  0  0  0  0  0
   19.1793   20.5081   25.7940 H   0  0  0  0  0  0  0  0  0  0  0  0
   18.7520   19.7296   27.3427 H   0  0  0  0  0  0  0  0  0  0  0  0
   20.4329   20.2553   27.0431 H   0  0  0  0  0  0  0  0  0  0  0  0
  1  2  1  0  0  0  0
  1  3  1  0  0  0  0
  1  4  1  0  0  0  0
  4  5  1  0  0  0  0
  4  6  1  0  0  0  0
  4  7  1  0  0  0  0
  7  8  1  0  0  0  0
  7  9  1  0  0  0  0
  7 10  1  0  0  0  0
 10 11  1  0  0  0  0
 10 12  1  0  0  0  0
 10 13  1  0  0  0  0
 13 14  1  0  0  0  0
 13 15  1  0  0  0  0
 13 16  1  0  0  0  0
 16 17  1  0  0  0  0
 16 18  1  0  0  0  0
 16 19  1  0  0  0  0
 19 20  1  0  0  0  0
 19 21  1  0  0  0  0
 19 22  1  0  0  0  0
  1 23  1  0  0  0  0
 23 24  1  0  0  0  0
 23 25  1  0  0  0  0
 23 26  1  0  0  0  0
M  END
> <VM2 Rank>
85

> <Conf_Id>
1577

> <Probability>
0.24

> <Sum Probability>
95.75

> <Delta G>
2.002

> <G>
77.468

> <E>
44.580

> <-TS>
32.888

> <U+W>
23.118

> <U>
72.739

> <W>
-49.621

> <W(PB)>
-51.864

> <W(SA)>
2.243

> <Valence>
3.076

> <Coulomb>
69.128

> <VdW>
0.535

> <VdW6>
-8.276

> <VdW12>
8.810

> <Bond>
0.270

> <Angle>
1.277

> <Pdih>
1.529

> <Idih>
0.000

> <Tether>
0.000

$$$$
VeraChem MOL file


 26 25  0  0  0  0  0  0  0  0999 V2000     
   20.0451   18.2296   25.4992 N   0  3  0  0  0  0  0  0  0  0  0  0
   20.5323   17.3714   25.8022 H   0  0  0  0  0  0  0  0  0  0  0  0
   19.2233   17.9017   24.9703 H   0  0  0  0  0  0  0  0  0  0  0  0
   20.9566   19.0408   24.5921 C   0  0  0  0  0  0  0  0  0  0  0  0
   21.3505   18.3615   23.8322 H   0  0  0  0  0  0  0  0  0  0  0  0
   21.7972   19.3930   25.1952 H   0  0  0  0  0  0  0  0  0  0  0  0
   20.2819   20.2418   23.8919 C   0  0  0  0  0  0  0  0  0  0  0  0
   19.9593   20.9702   24.6470 H   0  0  0  0  0  0  0  0  0  0  0  0
   21.0325   20.7618   23.2834 H   0  0  0  0  0  0  0  0  0  0  0  0
   19.0686   19.8546   23.0062 C   0  0  0  0  0  0  0  0  0  0  0  0
   18.6820   20.7608   22.5197 H   0  0  0  0  0  0  0  0  0  0  0  0
   18.2539   19.4929   23.6480 H   0  0  0  0  0  0  0  0  0  0  0  0
   19.3656   18.7859   21.9223 C   0  0  0  0  0  0  0  0  0  0  0  0
   19.6656   17.8415   22.3953 H   0  0  0  0  0  0  0  0  0  0  0  0
   18.4325   18.5709   21.3834 H   0  0  0  0  0  0  0  0  0  0  0  0
   20.4443   19.2228   20.9031 C   0  0  0  0  0  0  0  0  0  0  0  0
   21.4058   19.3760   21.4109 H   0  0  0  0  0  0  0  0  0  0  0  0
   20.1632   20.1864   20.4555 H   0  0  0  0  0  0  0  0  0  0  0  0
   20.6299   18.1742   19.7856 C   0  0  0  0  0  0  0  0  0  0  0  0
   21.3995   18.4987   19.0734 H   0  0  0  0  0  0  0  0  0  0  0  0
   19.6971   18.0225   19.2269 H   0  0  0  0  0  0  0  0  0  0  0  0
   20.9413   17.2065   20.2002 H   0  0  0  0  0  0  0  0  0  0  0  0
   19.6160   19.0402   26.7166 C   0  0  0  0  0  0  0  0  0  0  0  0
   19.0495   19.9136   26.3872 H   0  0  0  0  0  0  0  0  0  0  0  0
   18.9898   18.4168   27.3585 H   0  0  0  0  0  0  0  0  0  0  0  0
   20.5043   19.3597   27.2658 H   0  0  0  0  0  0  0  0  0  0  0  0
  1  2  1  0  0  0  0
  1  3  1  0  0  0  0
  1  4  1  0  0  0  0
  4  5  1  0  0  0  0
  4  6  1  0  0  0  0
  4  7  1  0  0  0  0
  7  8  1  0  0  0  0
  7  9  1  0  0  0  0
  7 10  1  0  0  0  0
 10 11  1  0  0  0  0
 10 12  1  0  0  0  0
 10 13  1  0  0  0  0
 13 14  1  0  0  0  0
 13 15  1  0  0  0  0
 13 16  1  0  0  0  0
 16 17  1  0  0  0  0
 16 18  1  0  0  0  0
 16 19  1  0  0  0  0
 19 20  1  0  0  0  0
 19 21  1  0  0  0  0
 19 22  1  0  0  0  0
  1 23  1  0  0  0  0
 23 24  1  0  0  0  0
 23 25  1  0  0  0  0
 23 26  1  0  0  0  0
M  END
> <VM2 Rank>
86

> <Conf_Id>
558

> <Probability>
0.24

> <Sum Probability>
95.99

> <Delta G>
2.012

> <G>
77.478

> <E>
44.552

> <-TS>
32.926

> <U+W>
23.091

> <U>
72.940

> <W>
-49.849

> <W(PB)>
-52.093

> <W(SA)>
2.244

> <Valence>
2.864

> <Coulomb>
69.815

> <VdW>
0.261

> <VdW6>
-8.512

> <VdW12>
8.774

> <Bond>
0.254

> <Angle>
1.081

> <Pdih>
1.529

> <Idih>
0.000

> <Tether>
0.000

$$$$
VeraChem MOL file


 26 25  0  0  0  0  0  0  0  0999 V2000     
   20.0735   18.2325   25.5002 N   0  3  0  0  0  0  0  0  0  0  0  0
   20.9798   18.0822   25.0325 H   0  0  0  0  0  0  0  0  0  0  0  0
   19.7508   17.2911   25.7745 H   0  0  0  0  0  0  0  0  0  0  0  0
   19.0821   18.8482   24.5257 C   0  0  0  0  0  0  0  0  0  0  0  0
   18.1473   19.0180   25.0658 H   0  0  0  0  0  0  0  0  0  0  0  0
   18.8886   18.1086   23.7449 H   0  0  0  0  0  0  0  0  0  0  0  0
   19.5461   20.1662   23.8659 C   0  0  0  0  0  0  0  0  0  0  0  0
   18.7500   20.5273   23.2026 H   0  0  0  0  0  0  0  0  0  0  0  0
   19.6604   20.9394   24.6364 H   0  0  0  0  0  0  0  0  0  0  0  0
   20.8718   20.0399   23.0700 C   0  0  0  0  0  0  0  0  0  0  0  0
   21.6960   19.8466   23.7698 H   0  0  0  0  0  0  0  0  0  0  0  0
   21.0993   21.0092   22.6053 H   0  0  0  0  0  0  0  0  0  0  0  0
   20.8746   18.9410   21.9757 C   0  0  0  0  0  0  0  0  0  0  0  0
   21.8673   18.9240   21.5049 H   0  0  0  0  0  0  0  0  0  0  0  0
   20.7404   17.9519   22.4333 H   0  0  0  0  0  0  0  0  0  0  0  0
   19.8036   19.1569   20.8804 C   0  0  0  0  0  0  0  0  0  0  0  0
   19.9136   20.1607   20.4468 H   0  0  0  0  0  0  0  0  0  0  0  0
   18.7979   19.1079   21.3187 H   0  0  0  0  0  0  0  0  0  0  0  0
   19.9135   18.1005   19.7603 C   0  0  0  0  0  0  0  0  0  0  0  0
   19.1457   18.2670   18.9938 H   0  0  0  0  0  0  0  0  0  0  0  0
   19.7770   17.0868   20.1590 H   0  0  0  0  0  0  0  0  0  0  0  0
   20.8943   18.1456   19.2693 H   0  0  0  0  0  0  0  0  0  0  0  0
   20.2427   19.1046   26.7387 C   0  0  0  0  0  0  0  0  0  0  0  0
   20.6416   20.0771   26.4437 H   0  0  0  0  0  0  0  0  0  0  0  0
   19.2718   19.2330   27.2221 H   0  0  0  0  0  0  0  0  0  0  0  0
   20.9359   18.6167   27.4275 H   0  0  0  0  0  0  0  0  0  0  0  0
  1  2  1  0  0  0  0
  1  3  1  0  0  0  0
  1  4  1  0  0  0  0
  4  5  1  0  0  0  0
  4  6  1  0  0  0  0
  4  7  1  0  0  0  0
  7  8  1  0  0  0  0
  7  9  1  0  0  0  0
  7 10  1  0  0  0  0
 10 11  1  0  0  0  0
 10 12  1  0  0  0  0
 10 13  1  0  0  0  0
 13 14  1  0  0  0  0
 13 15  1  0  0  0  0
 13 16  1  0  0  0  0
 16 17  1  0  0  0  0
 16 18  1  0  0  0  0
 16 19  1  0  0  0  0
 19 20  1  0  0  0  0
 19 21  1  0  0  0  0
 19 22  1  0  0  0  0
  1 23  1  0  0  0  0
 23 24  1  0  0  0  0
 23 25  1  0  0  0  0
 23 26  1  0  0  0  0
M  END
> <VM2 Rank>
87

> <Conf_Id>
1077

> <Probability>
0.23

> <Sum Probability>
96.22

> <Delta G>
2.021

> <G>
77.487

> <E>
44.561

> <-TS>
32.926

> <U+W>
23.099

> <U>
72.940

> <W>
-49.841

> <W(PB)>
-52.063

> <W(SA)>
2.222

> <Valence>
2.864

> <Coulomb>
69.815

> <VdW>
0.262

> <VdW6>
-8.512

> <VdW12>
8.774

> <Bond>
0.254

> <Angle>
1.081

> <Pdih>
1.529

> <Idih>
0.000

> <Tether>
0.000

$$$$
VeraChem MOL file


 26 25  0  0  0  0  0  0  0  0999 V2000     
   19.2145   19.4999   25.5380 N   0  3  0  0  0  0  0  0  0  0  0  0
   18.3079   19.3990   26.0215 H   0  0  0  0  0  0  0  0  0  0  0  0
   19.0284   20.1308   24.7443 H   0  0  0  0  0  0  0  0  0  0  0  0
   19.6739   18.1438   25.0267 C   0  0  0  0  0  0  0  0  0  0  0  0
   18.8376   17.6999   24.4814 H   0  0  0  0  0  0  0  0  0  0  0  0
   19.8780   17.5133   25.8957 H   0  0  0  0  0  0  0  0  0  0  0  0
   20.9165   18.1753   24.1079 C   0  0  0  0  0  0  0  0  0  0  0  0
   21.7855   18.5191   24.6837 H   0  0  0  0  0  0  0  0  0  0  0  0
   21.1485   17.1481   23.7970 H   0  0  0  0  0  0  0  0  0  0  0  0
   20.7533   19.0648   22.8495 C   0  0  0  0  0  0  0  0  0  0  0  0
   21.6992   19.0430   22.2929 H   0  0  0  0  0  0  0  0  0  0  0  0
   20.5996   20.1100   23.1491 H   0  0  0  0  0  0  0  0  0  0  0  0
   19.5970   18.6072   21.9241 C   0  0  0  0  0  0  0  0  0  0  0  0
   19.7706   17.5720   21.5995 H   0  0  0  0  0  0  0  0  0  0  0  0
   18.6548   18.5996   22.4875 H   0  0  0  0  0  0  0  0  0  0  0  0
   19.4068   19.5121   20.6825 C   0  0  0  0  0  0  0  0  0  0  0  0
   19.2197   20.5471   21.0013 H   0  0  0  0  0  0  0  0  0  0  0  0
   18.5036   19.1884   20.1465 H   0  0  0  0  0  0  0  0  0  0  0  0
   20.6033   19.4774   19.7043 C   0  0  0  0  0  0  0  0  0  0  0  0
   20.8319   18.4490   19.3960 H   0  0  0  0  0  0  0  0  0  0  0  0
   21.5053   19.9109   20.1534 H   0  0  0  0  0  0  0  0  0  0  0  0
   20.3762   20.0559   18.7995 H   0  0  0  0  0  0  0  0  0  0  0  0
   20.2425   20.1095   26.4840 C   0  0  0  0  0  0  0  0  0  0  0  0
   21.1793   20.2672   25.9456 H   0  0  0  0  0  0  0  0  0  0  0  0
   19.8656   21.0657   26.8536 H   0  0  0  0  0  0  0  0  0  0  0  0
   20.4065   19.4288   27.3222 H   0  0  0  0  0  0  0  0  0  0  0  0
  1  2  1  0  0  0  0
  1  3  1  0  0  0  0
  1  4  1  0  0  0  0
  4  5  1  0  0  0  0
  4  6  1  0  0  0  0
  4  7  1  0  0  0  0
  7  8  1  0  0  0  0
  7  9  1  0  0  0  0
  7 10  1  0  0  0  0
 10 11  1  0  0  0  0
 10 12  1  0  0  0  0
 10 13  1  0  0  0  0
 13 14  1  0  0  0  0
 13 15  1  0  0  0  0
 13 16  1  0  0  0  0
 16 17  1  0  0  0  0
 16 18  1  0  0  0  0
 16 19  1  0  0  0  0
 19 20  1  0  0  0  0
 19 21  1  0  0  0  0
 19 22  1  0  0  0  0
  1 23  1  0  0  0  0
 23 24  1  0  0  0  0
 23 25  1  0  0  0  0
 23 26  1  0  0  0  0
M  END
> <VM2 Rank>
88

> <Conf_Id>
960

> <Probability>
0.22

> <Sum Probability>
96.44

> <Delta G>
2.069

> <G>
77.535

> <E>
44.759

> <-TS>
32.776

> <U+W>
23.297

> <U>
73.042

> <W>
-49.745

> <W(PB)>
-52.024

> <W(SA)>
2.279

> <Valence>
2.938

> <Coulomb>
69.625

> <VdW>
0.478

> <VdW6>
-8.182

> <VdW12>
8.660

> <Bond>
0.253

> <Angle>
1.038

> <Pdih>
1.647

> <Idih>
0.000

> <Tether>
0.000

$$$$
VeraChem MOL file


 26 25  0  0  0  0  0  0  0  0999 V2000     
   20.6254   19.6431   25.5880 N   0  3  0  0  0  0  0  0  0  0  0  0
   20.7363   20.3041   24.8048 H   0  0  0  0  0  0  0  0  0  0  0  0
   21.4976   19.7226   26.1344 H   0  0  0  0  0  0  0  0  0  0  0  0
   20.4842   18.2259   25.0554 C   0  0  0  0  0  0  0  0  0  0  0  0
   20.3503   17.5612   25.9125 H   0  0  0  0  0  0  0  0  0  0  0  0
   21.4287   17.9627   24.5733 H   0  0  0  0  0  0  0  0  0  0  0  0
   19.3280   18.0142   24.0516 C   0  0  0  0  0  0  0  0  0  0  0  0
   19.3291   16.9635   23.7326 H   0  0  0  0  0  0  0  0  0  0  0  0
   18.3696   18.1726   24.5626 H   0  0  0  0  0  0  0  0  0  0  0  0
   19.3973   18.9272   22.8014 C   0  0  0  0  0  0  0  0  0  0  0  0
   19.3168   19.9798   23.1036 H   0  0  0  0  0  0  0  0  0  0  0  0
   18.5164   18.7200   22.1801 H   0  0  0  0  0  0  0  0  0  0  0  0
   20.6839   18.7174   21.9627 C   0  0  0  0  0  0  0  0  0  0  0  0
   21.5666   18.8949   22.5908 H   0  0  0  0  0  0  0  0  0  0  0  0
   20.7445   17.6707   21.6340 H   0  0  0  0  0  0  0  0  0  0  0  0
   20.7753   19.6509   20.7311 C   0  0  0  0  0  0  0  0  0  0  0  0
   21.7604   19.5188   20.2620 H   0  0  0  0  0  0  0  0  0  0  0  0
   20.7283   20.7001   21.0548 H   0  0  0  0  0  0  0  0  0  0  0  0
   19.6817   19.3840   19.6716 C   0  0  0  0  0  0  0  0  0  0  0  0
   19.8510   20.0027   18.7809 H   0  0  0  0  0  0  0  0  0  0  0  0
   18.6818   19.6244   20.0533 H   0  0  0  0  0  0  0  0  0  0  0  0
   19.6862   18.3329   19.3552 H   0  0  0  0  0  0  0  0  0  0  0  0
   19.4323   20.0273   26.4553 C   0  0  0  0  0  0  0  0  0  0  0  0
   19.3500   19.3217   27.2848 H   0  0  0  0  0  0  0  0  0  0  0  0
   19.5831   21.0371   26.8436 H   0  0  0  0  0  0  0  0  0  0  0  0
   18.5230   19.9978   25.8516 H   0  0  0  0  0  0  0  0  0  0  0  0
  1  2  1  0  0  0  0
  1  3  1  0  0  0  0
  1  4  1  0  0  0  0
  4  5  1  0  0  0  0
  4  6  1  0  0  0  0
  4  7  1  0  0  0  0
  7  8  1  0  0  0  0
  7  9  1  0  0  0  0
  7 10  1  0  0  0  0
 10 11  1  0  0  0  0
 10 12  1  0  0  0  0
 10 13  1  0  0  0  0
 13 14  1  0  0  0  0
 13 15  1  0  0  0  0
 13 16  1  0  0  0  0
 16 17  1  0  0  0  0
 16 18  1  0  0  0  0
 16 19  1  0  0  0  0
 19 20  1  0  0  0  0
 19 21  1  0  0  0  0
 19 22  1  0  0  0  0
  1 23  1  0  0  0  0
 23 24  1  0  0  0  0
 23 25  1  0  0  0  0
 23 26  1  0  0  0  0
M  END
> <VM2 Rank>
89

> <Conf_Id>
690

> <Probability>
0.21

> <Sum Probability>
96.65

> <Delta G>
2.070

> <G>
77.536

> <E>
44.760

> <-TS>
32.776

> <U+W>
23.298

> <U>
73.042

> <W>
-49.744

> <W(PB)>
-51.966

> <W(SA)>
2.222

> <Valence>
2.938

> <Coulomb>
69.625

> <VdW>
0.478

> <VdW6>
-8.182

> <VdW12>
8.660

> <Bond>
0.253

> <Angle>
1.038

> <Pdih>
1.647

> <Idih>
0.000

> <Tether>
0.000

$$$$
VeraChem MOL file


 26 25  0  0  0  0  0  0  0  0999 V2000     
   20.4138   19.0040   26.2207 N   0  3  0  0  0  0  0  0  0  0  0  0
   21.3212   18.6313   25.9028 H   0  0  0  0  0  0  0  0  0  0  0  0
   20.3603   18.7563   27.2214 H   0  0  0  0  0  0  0  0  0  0  0  0
   19.2741   18.3287   25.4747 C   0  0  0  0  0  0  0  0  0  0  0  0
   18.4081   18.9949   25.4969 H   0  0  0  0  0  0  0  0  0  0  0  0
   19.0165   17.4301   26.0412 H   0  0  0  0  0  0  0  0  0  0  0  0
   19.5887   17.9036   24.0228 C   0  0  0  0  0  0  0  0  0  0  0  0
   20.4322   17.2006   24.0239 H   0  0  0  0  0  0  0  0  0  0  0  0
   18.7236   17.3468   23.6389 H   0  0  0  0  0  0  0  0  0  0  0  0
   19.8930   19.0849   23.0719 C   0  0  0  0  0  0  0  0  0  0  0  0
   20.8223   19.5796   23.3830 H   0  0  0  0  0  0  0  0  0  0  0  0
   19.0892   19.8308   23.1433 H   0  0  0  0  0  0  0  0  0  0  0  0
   20.0383   18.6200   21.6050 C   0  0  0  0  0  0  0  0  0  0  0  0
   20.8381   17.8696   21.5349 H   0  0  0  0  0  0  0  0  0  0  0  0
   19.1111   18.1270   21.2813 H   0  0  0  0  0  0  0  0  0  0  0  0
   20.3525   19.7978   20.6557 C   0  0  0  0  0  0  0  0  0  0  0  0
   21.2811   20.2930   20.9729 H   0  0  0  0  0  0  0  0  0  0  0  0
   19.5542   20.5504   20.7211 H   0  0  0  0  0  0  0  0  0  0  0  0
   20.4964   19.3303   19.1916 C   0  0  0  0  0  0  0  0  0  0  0  0
   20.7193   20.1800   18.5333 H   0  0  0  0  0  0  0  0  0  0  0  0
   19.5705   18.8612   18.8340 H   0  0  0  0  0  0  0  0  0  0  0  0
   21.3108   18.6015   19.0880 H   0  0  0  0  0  0  0  0  0  0  0  0
   20.3512   20.5207   26.0746 C   0  0  0  0  0  0  0  0  0  0  0  0
   19.3973   20.8781   26.4684 H   0  0  0  0  0  0  0  0  0  0  0  0
   21.1721   20.9674   26.6398 H   0  0  0  0  0  0  0  0  0  0  0  0
   20.4396   20.7935   25.0223 H   0  0  0  0  0  0  0  0  0  0  0  0
  1  2  1  0  0  0  0
  1  3  1  0  0  0  0
  1  4  1  0  0  0  0
  4  5  1  0  0  0  0
  4  6  1  0  0  0  0
  4  7  1  0  0  0  0
  7  8  1  0  0  0  0
  7  9  1  0  0  0  0
  7 10  1  0  0  0  0
 10 11  1  0  0  0  0
 10 12  1  0  0  0  0
 10 13  1  0  0  0  0
 13 14  1  0  0  0  0
 13 15  1  0  0  0  0
 13 16  1  0  0  0  0
 16 17  1  0  0  0  0
 16 18  1  0  0  0  0
 16 19  1  0  0  0  0
 19 20  1  0  0  0  0
 19 21  1  0  0  0  0
 19 22  1  0  0  0  0
  1 23  1  0  0  0  0
 23 24  1  0  0  0  0
 23 25  1  0  0  0  0
 23 26  1  0  0  0  0
M  END
> <VM2 Rank>
90

> <Conf_Id>
1320

> <Probability>
0.20

> <Sum Probability>
96.86

> <Delta G>
2.105

> <G>
77.570

> <E>
45.060

> <-TS>
32.510

> <U+W>
23.599

> <U>
72.879

> <W>
-49.281

> <W(PB)>
-51.581

> <W(SA)>
2.300

> <Valence>
3.733

> <Coulomb>
68.869

> <VdW>
0.277

> <VdW6>
-6.946

> <VdW12>
7.223

> <Bond>
0.187

> <Angle>
0.835

> <Pdih>
2.712

> <Idih>
0.000

> <Tether>
0.000

$$$$
VeraChem MOL file


 26 25  0  0  0  0  0  0  0  0999 V2000     
   20.7268   18.6325   25.8434 N   0  3  0  0  0  0  0  0  0  0  0  0
   21.6045   18.9304   26.2981 H   0  0  0  0  0  0  0  0  0  0  0  0
   20.8973   17.6593   25.5468 H   0  0  0  0  0  0  0  0  0  0  0  0
   20.4575   19.5115   24.6335 C   0  0  0  0  0  0  0  0  0  0  0  0
   21.3818   19.5512   24.0521 H   0  0  0  0  0  0  0  0  0  0  0  0
   20.2380   20.5203   24.9917 H   0  0  0  0  0  0  0  0  0  0  0  0
   19.3129   19.0170   23.7238 C   0  0  0  0  0  0  0  0  0  0  0  0
   19.5148   17.9873   23.4031 H   0  0  0  0  0  0  0  0  0  0  0  0
   18.3782   18.9826   24.2980 H   0  0  0  0  0  0  0  0  0  0  0  0
   19.0989   19.9247   22.4870 C   0  0  0  0  0  0  0  0  0  0  0  0
   18.7808   20.9196   22.8281 H   0  0  0  0  0  0  0  0  0  0  0  0
   18.2604   19.5333   21.8956 H   0  0  0  0  0  0  0  0  0  0  0  0
   20.3444   20.0894   21.5744 C   0  0  0  0  0  0  0  0  0  0  0  0
   20.0737   20.7313   20.7248 H   0  0  0  0  0  0  0  0  0  0  0  0
   21.1262   20.6362   22.1186 H   0  0  0  0  0  0  0  0  0  0  0  0
   20.9431   18.7671   21.0306 C   0  0  0  0  0  0  0  0  0  0  0  0
   21.3195   18.1515   21.8585 H   0  0  0  0  0  0  0  0  0  0  0  0
   21.8196   19.0077   20.4128 H   0  0  0  0  0  0  0  0  0  0  0  0
   19.9462   17.9465   20.1811 C   0  0  0  0  0  0  0  0  0  0  0  0
   19.1024   17.5889   20.7841 H   0  0  0  0  0  0  0  0  0  0  0  0
   20.4412   17.0664   19.7506 H   0  0  0  0  0  0  0  0  0  0  0  0
   19.5471   18.5459   19.3527 H   0  0  0  0  0  0  0  0  0  0  0  0
   19.5781   18.7013   26.8433 C   0  0  0  0  0  0  0  0  0  0  0  0
   18.6673   18.3229   26.3751 H   0  0  0  0  0  0  0  0  0  0  0  0
   19.8249   18.0888   27.7134 H   0  0  0  0  0  0  0  0  0  0  0  0
   19.4330   19.7388   27.1521 H   0  0  0  0  0  0  0  0  0  0  0  0
  1  2  1  0  0  0  0
  1  3  1  0  0  0  0
  1  4  1  0  0  0  0
  4  5  1  0  0  0  0
  4  6  1  0  0  0  0
  4  7  1  0  0  0  0
  7  8  1  0  0  0  0
  7  9  1  0  0  0  0
  7 10  1  0  0  0  0
 10 11  1  0  0  0  0
 10 12  1  0  0  0  0
 10 13  1  0  0  0  0
 13 14  1  0  0  0  0
 13 15  1  0  0  0  0
 13 16  1  0  0  0  0
 16 17  1  0  0  0  0
 16 18  1  0  0  0  0
 16 19  1  0  0  0  0
 19 20  1  0  0  0  0
 19 21  1  0  0  0  0
 19 22  1  0  0  0  0
  1 23  1  0  0  0  0
 23 24  1  0  0  0  0
 23 25  1  0  0  0  0
 23 26  1  0  0  0  0
M  END
> <VM2 Rank>
91

> <Conf_Id>
222

> <Probability>
0.19

> <Sum Probability>
97.05

> <Delta G>
2.144

> <G>
77.610

> <E>
44.605

> <-TS>
33.005

> <U+W>
23.143

> <U>
72.963

> <W>
-49.820

> <W(PB)>
-52.038

> <W(SA)>
2.218

> <Valence>
3.204

> <Coulomb>
69.346

> <VdW>
0.413

> <VdW6>
-8.434

> <VdW12>
8.848

> <Bond>
0.271

> <Angle>
1.306

> <Pdih>
1.627

> <Idih>
0.000

> <Tether>
0.000

$$$$
VeraChem MOL file


 26 25  0  0  0  0  0  0  0  0999 V2000     
   19.3023   18.4856   25.7929 N   0  3  0  0  0  0  0  0  0  0  0  0
   19.3548   17.5002   25.4921 H   0  0  0  0  0  0  0  0  0  0  0  0
   18.3527   18.5951   26.1830 H   0  0  0  0  0  0  0  0  0  0  0  0
   19.4708   19.4098   24.5985 C   0  0  0  0  0  0  0  0  0  0  0  0
   19.4544   20.4396   24.9640 H   0  0  0  0  0  0  0  0  0  0  0  0
   18.6008   19.2645   23.9536 H   0  0  0  0  0  0  0  0  0  0  0  0
   20.7530   19.1657   23.7748 C   0  0  0  0  0  0  0  0  0  0  0  0
   21.6325   19.3184   24.4132 H   0  0  0  0  0  0  0  0  0  0  0  0
   20.7882   18.1187   23.4482 H   0  0  0  0  0  0  0  0  0  0  0  0
   20.8633   20.1068   22.5494 C   0  0  0  0  0  0  0  0  0  0  0  0
   21.8033   19.8989   22.0210 H   0  0  0  0  0  0  0  0  0  0  0  0
   20.9472   21.1431   22.9048 H   0  0  0  0  0  0  0  0  0  0  0  0
   19.6774   20.0206   21.5508 C   0  0  0  0  0  0  0  0  0  0  0  0
   18.7644   20.3926   22.0349 H   0  0  0  0  0  0  0  0  0  0  0  0
   19.8703   20.7103   20.7176 H   0  0  0  0  0  0  0  0  0  0  0  0
   19.4004   18.6079   20.9760 C   0  0  0  0  0  0  0  0  0  0  0  0
   18.5387   18.6691   20.2967 H   0  0  0  0  0  0  0  0  0  0  0  0
   19.1005   17.9226   21.7801 H   0  0  0  0  0  0  0  0  0  0  0  0
   20.6006   18.0139   20.2044 C   0  0  0  0  0  0  0  0  0  0  0  0
   20.9261   18.6880   19.4015 H   0  0  0  0  0  0  0  0  0  0  0  0
   20.3270   17.0544   19.7468 H   0  0  0  0  0  0  0  0  0  0  0  0
   21.4553   17.8317   20.8676 H   0  0  0  0  0  0  0  0  0  0  0  0
   20.3402   18.7797   26.8702 C   0  0  0  0  0  0  0  0  0  0  0  0
   20.2489   19.8228   27.1809 H   0  0  0  0  0  0  0  0  0  0  0  0
   20.1630   18.1236   27.7252 H   0  0  0  0  0  0  0  0  0  0  0  0
   21.3394   18.5982   26.4695 H   0  0  0  0  0  0  0  0  0  0  0  0
  1  2  1  0  0  0  0
  1  3  1  0  0  0  0
  1  4  1  0  0  0  0
  4  5  1  0  0  0  0
  4  6  1  0  0  0  0
  4  7  1  0  0  0  0
  7  8  1  0  0  0  0
  7  9  1  0  0  0  0
  7 10  1  0  0  0  0
 10 11  1  0  0  0  0
 10 12  1  0  0  0  0
 10 13  1  0  0  0  0
 13 14  1  0  0  0  0
 13 15  1  0  0  0  0
 13 16  1  0  0  0  0
 16 17  1  0  0  0  0
 16 18  1  0  0  0  0
 16 19  1  0  0  0  0
 19 20  1  0  0  0  0
 19 21  1  0  0  0  0
 19 22  1  0  0  0  0
  1 23  1  0  0  0  0
 23 24  1  0  0  0  0
 23 25  1  0  0  0  0
 23 26  1  0  0  0  0
M  END
> <VM2 Rank>
92

> <Conf_Id>
508

> <Probability>
0.18

> <Sum Probability>
97.23

> <Delta G>
2.165

> <G>
77.631

> <E>
44.626

> <-TS>
33.005

> <U+W>
23.164

> <U>
72.964

> <W>
-49.799

> <W(PB)>
-52.050

> <W(SA)>
2.251

> <Valence>
3.204

> <Coulomb>
69.346

> <VdW>
0.414

> <VdW6>
-8.435

> <VdW12>
8.848

> <Bond>
0.271

> <Angle>
1.306

> <Pdih>
1.627

> <Idih>
0.000

> <Tether>
0.000

$$$$
VeraChem MOL file


 26 25  0  0  0  0  0  0  0  0999 V2000     
   19.4224   18.3176   25.2952 N   0  3  0  0  0  0  0  0  0  0  0  0
   19.3629   17.3783   25.7192 H   0  0  0  0  0  0  0  0  0  0  0  0
   18.8982   18.2487   24.4102 H   0  0  0  0  0  0  0  0  0  0  0  0
   20.8769   18.6581   25.0114 C   0  0  0  0  0  0  0  0  0  0  0  0
   21.3103   17.8130   24.4711 H   0  0  0  0  0  0  0  0  0  0  0  0
   21.3921   18.7410   25.9717 H   0  0  0  0  0  0  0  0  0  0  0  0
   21.1003   19.9489   24.1911 C   0  0  0  0  0  0  0  0  0  0  0  0
   20.7621   20.8152   24.7741 H   0  0  0  0  0  0  0  0  0  0  0  0
   22.1794   20.0876   24.0435 H   0  0  0  0  0  0  0  0  0  0  0  0
   20.3914   19.9501   22.8135 C   0  0  0  0  0  0  0  0  0  0  0  0
   20.5981   20.9067   22.3142 H   0  0  0  0  0  0  0  0  0  0  0  0
   19.3049   19.9118   22.9626 H   0  0  0  0  0  0  0  0  0  0  0  0
   20.8480   18.7885   21.8947 C   0  0  0  0  0  0  0  0  0  0  0  0
   21.9443   18.7992   21.8222 H   0  0  0  0  0  0  0  0  0  0  0  0
   20.5772   17.8222   22.3406 H   0  0  0  0  0  0  0  0  0  0  0  0
   20.2600   18.8696   20.4653 C   0  0  0  0  0  0  0  0  0  0  0  0
   20.7146   18.0793   19.8515 H   0  0  0  0  0  0  0  0  0  0  0  0
   20.5456   19.8228   19.9988 H   0  0  0  0  0  0  0  0  0  0  0  0
   18.7230   18.7102   20.4240 C   0  0  0  0  0  0  0  0  0  0  0  0
   18.3675   18.6855   19.3858 H   0  0  0  0  0  0  0  0  0  0  0  0
   18.2168   19.5445   20.9250 H   0  0  0  0  0  0  0  0  0  0  0  0
   18.4092   17.7760   20.9075 H   0  0  0  0  0  0  0  0  0  0  0  0
   18.7861   19.3470   26.2218 C   0  0  0  0  0  0  0  0  0  0  0  0
   17.7541   19.0539   26.4268 H   0  0  0  0  0  0  0  0  0  0  0  0
   19.3508   19.3862   27.1558 H   0  0  0  0  0  0  0  0  0  0  0  0
   18.8009   20.3258   25.7382 H   0  0  0  0  0  0  0  0  0  0  0  0
  1  2  1  0  0  0  0
  1  3  1  0  0  0  0
  1  4  1  0  0  0  0
  4  5  1  0  0  0  0
  4  6  1  0  0  0  0
  4  7  1  0  0  0  0
  7  8  1  0  0  0  0
  7  9  1  0  0  0  0
  7 10  1  0  0  0  0
 10 11  1  0  0  0  0
 10 12  1  0  0  0  0
 10 13  1  0  0  0  0
 13 14  1  0  0  0  0
 13 15  1  0  0  0  0
 13 16  1  0  0  0  0
 16 17  1  0  0  0  0
 16 18  1  0  0  0  0
 16 19  1  0  0  0  0
 19 20  1  0  0  0  0
 19 21  1  0  0  0  0
 19 22  1  0  0  0  0
  1 23  1  0  0  0  0
 23 24  1  0  0  0  0
 23 25  1  0  0  0  0
 23 26  1  0  0  0  0
M  END
> <VM2 Rank>
93

> <Conf_Id>
260

> <Probability>
0.18

> <Sum Probability>
97.41

> <Delta G>
2.171

> <G>
77.637

> <E>
44.830

> <-TS>
32.808

> <U+W>
23.368

> <U>
73.121

> <W>
-49.753

> <W(PB)>
-51.988

> <W(SA)>
2.234

> <Valence>
2.869

> <Coulomb>
69.885

> <VdW>
0.367

> <VdW6>
-8.310

> <VdW12>
8.678

> <Bond>
0.246

> <Angle>
0.961

> <Pdih>
1.661

> <Idih>
0.000

> <Tether>
0.000

$$$$
VeraChem MOL file


 26 25  0  0  0  0  0  0  0  0999 V2000     
   20.5065   18.9107   26.1979 N   0  3  0  0  0  0  0  0  0  0  0  0
   21.4667   18.5765   26.0234 H   0  0  0  0  0  0  0  0  0  0  0  0
   20.3250   18.6807   27.1878 H   0  0  0  0  0  0  0  0  0  0  0  0
   19.5171   18.1518   25.3239 C   0  0  0  0  0  0  0  0  0  0  0  0
   18.5165   18.5531   25.5026 H   0  0  0  0  0  0  0  0  0  0  0  0
   19.5281   17.1192   25.6821 H   0  0  0  0  0  0  0  0  0  0  0  0
   19.8228   18.1338   23.8091 C   0  0  0  0  0  0  0  0  0  0  0  0
   20.9079   18.0878   23.6536 H   0  0  0  0  0  0  0  0  0  0  0  0
   19.4107   17.2036   23.3962 H   0  0  0  0  0  0  0  0  0  0  0  0
   19.2000   19.3267   23.0400 C   0  0  0  0  0  0  0  0  0  0  0  0
   19.6589   20.2709   23.3551 H   0  0  0  0  0  0  0  0  0  0  0  0
   18.1351   19.4007   23.3005 H   0  0  0  0  0  0  0  0  0  0  0  0
   19.3203   19.1969   21.5015 C   0  0  0  0  0  0  0  0  0  0  0  0
   18.8372   18.2673   21.1704 H   0  0  0  0  0  0  0  0  0  0  0  0
   18.7569   20.0183   21.0374 H   0  0  0  0  0  0  0  0  0  0  0  0
   20.7803   19.2371   20.9907 C   0  0  0  0  0  0  0  0  0  0  0  0
   21.3434   18.3802   21.3836 H   0  0  0  0  0  0  0  0  0  0  0  0
   21.2788   20.1433   21.3623 H   0  0  0  0  0  0  0  0  0  0  0  0
   20.8449   19.2140   19.4486 C   0  0  0  0  0  0  0  0  0  0  0  0
   20.3803   18.3036   19.0477 H   0  0  0  0  0  0  0  0  0  0  0  0
   21.8867   19.2402   19.1037 H   0  0  0  0  0  0  0  0  0  0  0  0
   20.3262   20.0805   19.0180 H   0  0  0  0  0  0  0  0  0  0  0  0
   20.4160   20.4190   26.0054 C   0  0  0  0  0  0  0  0  0  0  0  0
   20.7583   20.6758   25.0020 H   0  0  0  0  0  0  0  0  0  0  0  0
   19.3808   20.7385   26.1430 H   0  0  0  0  0  0  0  0  0  0  0  0
   21.0550   20.9103   26.7425 H   0  0  0  0  0  0  0  0  0  0  0  0
  1  2  1  0  0  0  0
  1  3  1  0  0  0  0
  1  4  1  0  0  0  0
  4  5  1  0  0  0  0
  4  6  1  0  0  0  0
  4  7  1  0  0  0  0
  7  8  1  0  0  0  0
  7  9  1  0  0  0  0
  7 10  1  0  0  0  0
 10 11  1  0  0  0  0
 10 12  1  0  0  0  0
 10 13  1  0  0  0  0
 13 14  1  0  0  0  0
 13 15  1  0  0  0  0
 13 16  1  0  0  0  0
 16 17  1  0  0  0  0
 16 18  1  0  0  0  0
 16 19  1  0  0  0  0
 19 20  1  0  0  0  0
 19 21  1  0  0  0  0
 19 22  1  0  0  0  0
  1 23  1  0  0  0  0
 23 24  1  0  0  0  0
 23 25  1  0  0  0  0
 23 26  1  0  0  0  0
M  END
> <VM2 Rank>
94

> <Conf_Id>
764

> <Probability>
0.16

> <Sum Probability>
97.57

> <Delta G>
2.247

> <G>
77.713

> <E>
45.735

> <-TS>
31.978

> <U+W>
24.273

> <U>
73.883

> <W>
-49.610

> <W(PB)>
-51.835

> <W(SA)>
2.225

> <Valence>
4.358

> <Coulomb>
69.048

> <VdW>
0.477

> <VdW6>
-7.513

> <VdW12>
7.990

> <Bond>
0.237

> <Angle>
1.265

> <Pdih>
2.855

> <Idih>
0.000

> <Tether>
0.000

$$$$
VeraChem MOL file


 26 25  0  0  0  0  0  0  0  0999 V2000     
   19.4348   18.8017   26.1598 N   0  3  0  0  0  0  0  0  0  0  0  0
   19.5889   18.6055   27.1616 H   0  0  0  0  0  0  0  0  0  0  0  0
   18.5761   18.2826   25.9206 H   0  0  0  0  0  0  0  0  0  0  0  0
   20.6155   18.2635   25.3628 C   0  0  0  0  0  0  0  0  0  0  0  0
   20.7871   17.2472   25.7267 H   0  0  0  0  0  0  0  0  0  0  0  0
   21.4999   18.8565   25.6084 H   0  0  0  0  0  0  0  0  0  0  0  0
   20.4265   18.1952   23.8304 C   0  0  0  0  0  0  0  0  0  0  0  0
   21.0453   17.3699   23.4540 H   0  0  0  0  0  0  0  0  0  0  0  0
   19.3865   17.9330   23.5996 H   0  0  0  0  0  0  0  0  0  0  0  0
   20.8490   19.4946   23.0985 C   0  0  0  0  0  0  0  0  0  0  0  0
   21.8563   19.7794   23.4325 H   0  0  0  0  0  0  0  0  0  0  0  0
   20.1886   20.3249   23.3739 H   0  0  0  0  0  0  0  0  0  0  0  0
   20.8654   19.3542   21.5563 C   0  0  0  0  0  0  0  0  0  0  0  0
   21.2832   20.2754   21.1270 H   0  0  0  0  0  0  0  0  0  0  0  0
   21.5478   18.5432   21.2665 H   0  0  0  0  0  0  0  0  0  0  0  0
   19.4667   19.1034   20.9441 C   0  0  0  0  0  0  0  0  0  0  0  0
   18.7713   19.8880   21.2734 H   0  0  0  0  0  0  0  0  0  0  0  0
   19.0614   18.1479   21.3027 H   0  0  0  0  0  0  0  0  0  0  0  0
   19.5164   19.0788   19.4014 C   0  0  0  0  0  0  0  0  0  0  0  0
   19.8789   20.0350   19.0022 H   0  0  0  0  0  0  0  0  0  0  0  0
   18.5174   18.8972   18.9842 H   0  0  0  0  0  0  0  0  0  0  0  0
   20.1816   18.2835   19.0406 H   0  0  0  0  0  0  0  0  0  0  0  0
   19.2337   20.2987   25.9637 C   0  0  0  0  0  0  0  0  0  0  0  0
   18.9181   20.4889   24.9370 H   0  0  0  0  0  0  0  0  0  0  0  0
   18.4588   20.6462   26.6507 H   0  0  0  0  0  0  0  0  0  0  0  0
   20.1713   20.8188   26.1716 H   0  0  0  0  0  0  0  0  0  0  0  0
  1  2  1  0  0  0  0
  1  3  1  0  0  0  0
  1  4  1  0  0  0  0
  4  5  1  0  0  0  0
  4  6  1  0  0  0  0
  4  7  1  0  0  0  0
  7  8  1  0  0  0  0
  7  9  1  0  0  0  0
  7 10  1  0  0  0  0
 10 11  1  0  0  0  0
 10 12  1  0  0  0  0
 10 13  1  0  0  0  0
 13 14  1  0  0  0  0
 13 15  1  0  0  0  0
 13 16  1  0  0  0  0
 16 17  1  0  0  0  0
 16 18  1  0  0  0  0
 16 19  1  0  0  0  0
 19 20  1  0  0  0  0
 19 21  1  0  0  0  0
 19 22  1  0  0  0  0
  1 23  1  0  0  0  0
 23 24  1  0  0  0  0
 23 25  1  0  0  0  0
 23 26  1  0  0  0  0
M  END
> <VM2 Rank>
95

> <Conf_Id>
1317

> <Probability>
0.15

> <Sum Probability>
97.72

> <Delta G>
2.274

> <G>
77.740

> <E>
45.763

> <-TS>
31.977

> <U+W>
24.301

> <U>
73.883

> <W>
-49.581

> <W(PB)>
-51.846

> <W(SA)>
2.264

> <Valence>
4.358

> <Coulomb>
69.048

> <VdW>
0.477

> <VdW6>
-7.513

> <VdW12>
7.990

> <Bond>
0.237

> <Angle>
1.266

> <Pdih>
2.855

> <Idih>
0.000

> <Tether>
0.000

$$$$
VeraChem MOL file


 26 25  0  0  0  0  0  0  0  0999 V2000     
   19.6811   18.9410   25.6721 N   0  3  0  0  0  0  0  0  0  0  0  0
   19.8862   18.0472   26.1451 H   0  0  0  0  0  0  0  0  0  0  0  0
   18.7755   18.8023   25.1992 H   0  0  0  0  0  0  0  0  0  0  0  0
   20.7571   19.2482   24.6492 C   0  0  0  0  0  0  0  0  0  0  0  0
   21.7009   19.3688   25.1870 H   0  0  0  0  0  0  0  0  0  0  0  0
   20.5103   20.2020   24.1769 H   0  0  0  0  0  0  0  0  0  0  0  0
   20.9176   18.1596   23.5685 C   0  0  0  0  0  0  0  0  0  0  0  0
   21.7600   18.4285   22.9186 H   0  0  0  0  0  0  0  0  0  0  0  0
   21.1999   17.2137   24.0494 H   0  0  0  0  0  0  0  0  0  0  0  0
   19.6465   17.9363   22.7077 C   0  0  0  0  0  0  0  0  0  0  0  0
   18.8543   17.5072   23.3356 H   0  0  0  0  0  0  0  0  0  0  0  0
   19.8601   17.1719   21.9487 H   0  0  0  0  0  0  0  0  0  0  0  0
   19.0967   19.2128   22.0153 C   0  0  0  0  0  0  0  0  0  0  0  0
   18.2112   18.9384   21.4256 H   0  0  0  0  0  0  0  0  0  0  0  0
   18.7365   19.9165   22.7776 H   0  0  0  0  0  0  0  0  0  0  0  0
   20.1034   19.9465   21.0929 C   0  0  0  0  0  0  0  0  0  0  0  0
   20.9539   20.3195   21.6790 H   0  0  0  0  0  0  0  0  0  0  0  0
   19.6118   20.8368   20.6765 H   0  0  0  0  0  0  0  0  0  0  0  0
   20.6172   19.0715   19.9271 C   0  0  0  0  0  0  0  0  0  0  0  0
   19.7830   18.6756   19.3335 H   0  0  0  0  0  0  0  0  0  0  0  0
   21.2123   18.2248   20.2910 H   0  0  0  0  0  0  0  0  0  0  0  0
   21.2563   19.6605   19.2567 H   0  0  0  0  0  0  0  0  0  0  0  0
   19.5884   20.0742   26.6841 C   0  0  0  0  0  0  0  0  0  0  0  0
   20.5493   20.1811   27.1922 H   0  0  0  0  0  0  0  0  0  0  0  0
   19.3398   21.0015   26.1633 H   0  0  0  0  0  0  0  0  0  0  0  0
   18.8096   19.8404   27.4134 H   0  0  0  0  0  0  0  0  0  0  0  0
  1  2  1  0  0  0  0
  1  3  1  0  0  0  0
  1  4  1  0  0  0  0
  4  5  1  0  0  0  0
  4  6  1  0  0  0  0
  4  7  1  0  0  0  0
  7  8  1  0  0  0  0
  7  9  1  0  0  0  0
  7 10  1  0  0  0  0
 10 11  1  0  0  0  0
 10 12  1  0  0  0  0
 10 13  1  0  0  0  0
 13 14  1  0  0  0  0
 13 15  1  0  0  0  0
 13 16  1  0  0  0  0
 16 17  1  0  0  0  0
 16 18  1  0  0  0  0
 16 19  1  0  0  0  0
 19 20  1  0  0  0  0
 19 21  1  0  0  0  0
 19 22  1  0  0  0  0
  1 23  1  0  0  0  0
 23 24  1  0  0  0  0
 23 25  1  0  0  0  0
 23 26  1  0  0  0  0
M  END
> <VM2 Rank>
96

> <Conf_Id>
188

> <Probability>
0.14

> <Sum Probability>
97.86

> <Delta G>
2.329

> <G>
77.795

> <E>
44.774

> <-TS>
33.021

> <U+W>
23.312

> <U>
72.853

> <W>
-49.541

> <W(PB)>
-51.773

> <W(SA)>
2.233

> <Valence>
3.035

> <Coulomb>
69.793

> <VdW>
0.025

> <VdW6>
-8.576

> <VdW12>
8.601

> <Bond>
0.254

> <Angle>
1.267

> <Pdih>
1.514

> <Idih>
0.000

> <Tether>
0.000

$$$$
VeraChem MOL file


 26 25  0  0  0  0  0  0  0  0999 V2000     
   20.2722   19.0011   25.6930 N   0  3  0  0  0  0  0  0  0  0  0  0
   21.2181   19.0507   25.2859 H   0  0  0  0  0  0  0  0  0  0  0  0
   20.2184   18.0810   26.1569 H   0  0  0  0  0  0  0  0  0  0  0  0
   19.2308   19.0930   24.5951 C   0  0  0  0  0  0  0  0  0  0  0  0
   19.3133   20.0803   24.1344 H   0  0  0  0  0  0  0  0  0  0  0  0
   18.2467   19.0176   25.0646 H   0  0  0  0  0  0  0  0  0  0  0  0
   19.3686   18.0021   23.5136 C   0  0  0  0  0  0  0  0  0  0  0  0
   19.2493   17.0153   23.9802 H   0  0  0  0  0  0  0  0  0  0  0  0
   18.5370   18.1007   22.8043 H   0  0  0  0  0  0  0  0  0  0  0  0
   20.7158   18.0451   22.7456 C   0  0  0  0  0  0  0  0  0  0  0  0
   20.7139   17.2588   21.9790 H   0  0  0  0  0  0  0  0  0  0  0  0
   21.5321   17.7796   23.4304 H   0  0  0  0  0  0  0  0  0  0  0  0
   21.0447   19.4109   22.0843 C   0  0  0  0  0  0  0  0  0  0  0  0
   21.2017   20.1673   22.8649 H   0  0  0  0  0  0  0  0  0  0  0  0
   22.0064   19.3244   21.5600 H   0  0  0  0  0  0  0  0  0  0  0  0
   19.9782   19.9337   21.0885 C   0  0  0  0  0  0  0  0  0  0  0  0
   20.3086   20.9077   20.7012 H   0  0  0  0  0  0  0  0  0  0  0  0
   19.0311   20.1239   21.6109 H   0  0  0  0  0  0  0  0  0  0  0  0
   19.7338   18.9816   19.8958 C   0  0  0  0  0  0  0  0  0  0  0  0
   19.2972   18.0299   20.2232 H   0  0  0  0  0  0  0  0  0  0  0  0
   20.6700   18.7658   19.3649 H   0  0  0  0  0  0  0  0  0  0  0  0
   19.0378   19.4348   19.1781 H   0  0  0  0  0  0  0  0  0  0  0  0
   20.0639   20.1225   26.7010 C   0  0  0  0  0  0  0  0  0  0  0  0
   20.1569   21.0845   26.1923 H   0  0  0  0  0  0  0  0  0  0  0  0
   19.0679   20.0305   27.1396 H   0  0  0  0  0  0  0  0  0  0  0  0
   20.8207   20.0448   27.4848 H   0  0  0  0  0  0  0  0  0  0  0  0
  1  2  1  0  0  0  0
  1  3  1  0  0  0  0
  1  4  1  0  0  0  0
  4  5  1  0  0  0  0
  4  6  1  0  0  0  0
  4  7  1  0  0  0  0
  7  8  1  0  0  0  0
  7  9  1  0  0  0  0
  7 10  1  0  0  0  0
 10 11  1  0  0  0  0
 10 12  1  0  0  0  0
 10 13  1  0  0  0  0
 13 14  1  0  0  0  0
 13 15  1  0  0  0  0
 13 16  1  0  0  0  0
 16 17  1  0  0  0  0
 16 18  1  0  0  0  0
 16 19  1  0  0  0  0
 19 20  1  0  0  0  0
 19 21  1  0  0  0  0
 19 22  1  0  0  0  0
  1 23  1  0  0  0  0
 23 24  1  0  0  0  0
 23 25  1  0  0  0  0
 23 26  1  0  0  0  0
M  END
> <VM2 Rank>
97

> <Conf_Id>
1113

> <Probability>
0.12

> <Sum Probability>
97.98

> <Delta G>
2.420

> <G>
77.886

> <E>
44.865

> <-TS>
33.021

> <U+W>
23.404

> <U>
72.853

> <W>
-49.449

> <W(PB)>
-51.678

> <W(SA)>
2.229

> <Valence>
3.035

> <Coulomb>
69.792

> <VdW>
0.025

> <VdW6>
-8.576

> <VdW12>
8.601

> <Bond>
0.254

> <Angle>
1.267

> <Pdih>
1.514

> <Idih>
0.000

> <Tether>
0.000

$$$$
VeraChem MOL file


 26 25  0  0  0  0  0  0  0  0999 V2000     
   20.6947   19.2187   25.6403 N   0  3  0  0  0  0  0  0  0  0  0  0
   21.4505   19.7530   26.0973 H   0  0  0  0  0  0  0  0  0  0  0  0
   21.1580   18.3980   25.2227 H   0  0  0  0  0  0  0  0  0  0  0  0
   20.0577   20.0659   24.5503 C   0  0  0  0  0  0  0  0  0  0  0  0
   20.8660   20.4684   23.9349 H   0  0  0  0  0  0  0  0  0  0  0  0
   19.5544   20.9064   25.0347 H   0  0  0  0  0  0  0  0  0  0  0  0
   19.0578   19.3176   23.6404 C   0  0  0  0  0  0  0  0  0  0  0  0
   18.2017   18.9800   24.2383 H   0  0  0  0  0  0  0  0  0  0  0  0
   18.6471   20.0270   22.9108 H   0  0  0  0  0  0  0  0  0  0  0  0
   19.6721   18.1029   22.8967 C   0  0  0  0  0  0  0  0  0  0  0  0
   18.9014   17.6476   22.2607 H   0  0  0  0  0  0  0  0  0  0  0  0
   19.9381   17.3287   23.6288 H   0  0  0  0  0  0  0  0  0  0  0  0
   20.9240   18.4299   22.0384 C   0  0  0  0  0  0  0  0  0  0  0  0
   21.7478   18.7397   22.6951 H   0  0  0  0  0  0  0  0  0  0  0  0
   21.2664   17.5064   21.5514 H   0  0  0  0  0  0  0  0  0  0  0  0
   20.7130   19.5174   20.9543 C   0  0  0  0  0  0  0  0  0  0  0  0
   21.6640   19.6745   20.4264 H   0  0  0  0  0  0  0  0  0  0  0  0
   20.4677   20.4795   21.4237 H   0  0  0  0  0  0  0  0  0  0  0  0
   19.6252   19.1496   19.9198 C   0  0  0  0  0  0  0  0  0  0  0  0
   19.5754   19.9080   19.1279 H   0  0  0  0  0  0  0  0  0  0  0  0
   18.6326   19.0904   20.3831 H   0  0  0  0  0  0  0  0  0  0  0  0
   19.8419   18.1834   19.4461 H   0  0  0  0  0  0  0  0  0  0  0  0
   19.6635   18.7879   26.6767 C   0  0  0  0  0  0  0  0  0  0  0  0
   19.2014   19.6760   27.1134 H   0  0  0  0  0  0  0  0  0  0  0  0
   18.9016   18.1728   26.1938 H   0  0  0  0  0  0  0  0  0  0  0  0
   20.1618   18.2095   27.4578 H   0  0  0  0  0  0  0  0  0  0  0  0
  1  2  1  0  0  0  0
  1  3  1  0  0  0  0
  1  4  1  0  0  0  0
  4  5  1  0  0  0  0
  4  6  1  0  0  0  0
  4  7  1  0  0  0  0
  7  8  1  0  0  0  0
  7  9  1  0  0  0  0
  7 10  1  0  0  0  0
 10 11  1  0  0  0  0
 10 12  1  0  0  0  0
 10 13  1  0  0  0  0
 13 14  1  0  0  0  0
 13 15  1  0  0  0  0
 13 16  1  0  0  0  0
 16 17  1  0  0  0  0
 16 18  1  0  0  0  0
 16 19  1  0  0  0  0
 19 20  1  0  0  0  0
 19 21  1  0  0  0  0
 19 22  1  0  0  0  0
  1 23  1  0  0  0  0
 23 24  1  0  0  0  0
 23 25  1  0  0  0  0
 23 26  1  0  0  0  0
M  END
> <VM2 Rank>
98

> <Conf_Id>
818

> <Probability>
0.11

> <Sum Probability>
98.09

> <Delta G>
2.477

> <G>
77.943

> <E>
44.703

> <-TS>
33.241

> <U+W>
23.241

> <U>
73.340

> <W>
-50.099

> <W(PB)>
-52.272

> <W(SA)>
2.172

> <Valence>
3.289

> <Coulomb>
69.804

> <VdW>
0.247

> <VdW6>
-9.372

> <VdW12>
9.619

> <Bond>
0.294

> <Angle>
1.399

> <Pdih>
1.596

> <Idih>
0.000

> <Tether>
0.000

$$$$
VeraChem MOL file


 26 25  0  0  0  0  0  0  0  0999 V2000     
   19.9440   19.1060   26.3240 N   0  3  0  0  0  0  0  0  0  0  0  0
   20.4672   19.1370   27.2133 H   0  0  0  0  0  0  0  0  0  0  0  0
   19.0614   18.6250   26.5562 H   0  0  0  0  0  0  0  0  0  0  0  0
   20.7356   18.2913   25.3099 C   0  0  0  0  0  0  0  0  0  0  0  0
   21.0222   17.3685   25.8210 H   0  0  0  0  0  0  0  0  0  0  0  0
   21.6526   18.8340   25.0674 H   0  0  0  0  0  0  0  0  0  0  0  0
   19.9844   17.9073   24.0152 C   0  0  0  0  0  0  0  0  0  0  0  0
   20.3822   16.9441   23.6691 H   0  0  0  0  0  0  0  0  0  0  0  0
   18.9212   17.7412   24.2335 H   0  0  0  0  0  0  0  0  0  0  0  0
   20.1533   18.9413   22.8758 C   0  0  0  0  0  0  0  0  0  0  0  0
   21.2244   19.0969   22.6916 H   0  0  0  0  0  0  0  0  0  0  0  0
   19.7398   19.9112   23.1752 H   0  0  0  0  0  0  0  0  0  0  0  0
   19.4583   18.4757   21.5734 C   0  0  0  0  0  0  0  0  0  0  0  0
   19.9099   17.5357   21.2271 H   0  0  0  0  0  0  0  0  0  0  0  0
   18.4048   18.2507   21.7899 H   0  0  0  0  0  0  0  0  0  0  0  0
   19.5126   19.5242   20.4358 C   0  0  0  0  0  0  0  0  0  0  0  0
   19.0384   20.4583   20.7681 H   0  0  0  0  0  0  0  0  0  0  0  0
   18.9121   19.1590   19.5909 H   0  0  0  0  0  0  0  0  0  0  0  0
   20.9462   19.8178   19.9377 C   0  0  0  0  0  0  0  0  0  0  0  0
   20.9215   20.4941   19.0735 H   0  0  0  0  0  0  0  0  0  0  0  0
   21.4532   18.8951   19.6270 H   0  0  0  0  0  0  0  0  0  0  0  0
   21.5528   20.2989   20.7148 H   0  0  0  0  0  0  0  0  0  0  0  0
   19.6736   20.5265   25.8452 C   0  0  0  0  0  0  0  0  0  0  0  0
   20.6179   20.9981   25.5646 H   0  0  0  0  0  0  0  0  0  0  0  0
   19.0001   20.4952   24.9873 H   0  0  0  0  0  0  0  0  0  0  0  0
   19.2048   21.0914   26.6540 H   0  0  0  0  0  0  0  0  0  0  0  0
  1  2  1  0  0  0  0
  1  3  1  0  0  0  0
  1  4  1  0  0  0  0
  4  5  1  0  0  0  0
  4  6  1  0  0  0  0
  4  7  1  0  0  0  0
  7  8  1  0  0  0  0
  7  9  1  0  0  0  0
  7 10  1  0  0  0  0
 10 11  1  0  0  0  0
 10 12  1  0  0  0  0
 10 13  1  0  0  0  0
 13 14  1  0  0  0  0
 13 15  1  0  0  0  0
 13 16  1  0  0  0  0
 16 17  1  0  0  0  0
 16 18  1  0  0  0  0
 16 19  1  0  0  0  0
 19 20  1  0  0  0  0
 19 21  1  0  0  0  0
 19 22  1  0  0  0  0
  1 23  1  0  0  0  0
 23 24  1  0  0  0  0
 23 25  1  0  0  0  0
 23 26  1  0  0  0  0
M  END
> <VM2 Rank>
99

> <Conf_Id>
266

> <Probability>
0.11

> <Sum Probability>
98.20

> <Delta G>
2.494

> <G>
77.960

> <E>
45.657

> <-TS>
32.303

> <U+W>
24.196

> <U>
73.665

> <W>
-49.470

> <W(PB)>
-51.730

> <W(SA)>
2.260

> <Valence>
4.363

> <Coulomb>
68.783

> <VdW>
0.520

> <VdW6>
-7.471

> <VdW12>
7.991

> <Bond>
0.232

> <Angle>
1.227

> <Pdih>
2.905

> <Idih>
0.000

> <Tether>
0.000

$$$$
VeraChem MOL file


 26 25  0  0  0  0  0  0  0  0999 V2000     
   19.2284   19.0676   25.5884 N   0  3  0  0  0  0  0  0  0  0  0  0
   18.9723   18.1729   25.1452 H   0  0  0  0  0  0  0  0  0  0  0  0
   18.3495   19.4335   25.9875 H   0  0  0  0  0  0  0  0  0  0  0  0
   19.7543   20.0347   24.5396 C   0  0  0  0  0  0  0  0  0  0  0  0
   20.0408   20.9565   25.0520 H   0  0  0  0  0  0  0  0  0  0  0  0
   18.9261   20.2686   23.8663 H   0  0  0  0  0  0  0  0  0  0  0  0
   20.9467   19.5122   23.7072 C   0  0  0  0  0  0  0  0  0  0  0  0
   21.2544   20.2956   23.0030 H   0  0  0  0  0  0  0  0  0  0  0  0
   21.8097   19.3517   24.3660 H   0  0  0  0  0  0  0  0  0  0  0  0
   20.6462   18.2033   22.9312 C   0  0  0  0  0  0  0  0  0  0  0  0
   20.4928   17.3859   23.6485 H   0  0  0  0  0  0  0  0  0  0  0  0
   21.5360   17.9191   22.3539 H   0  0  0  0  0  0  0  0  0  0  0  0
   19.4171   18.2747   21.9851 C   0  0  0  0  0  0  0  0  0  0  0  0
   19.3048   17.3044   21.4820 H   0  0  0  0  0  0  0  0  0  0  0  0
   18.5036   18.4055   22.5803 H   0  0  0  0  0  0  0  0  0  0  0  0
   19.4776   19.3902   20.9106 C   0  0  0  0  0  0  0  0  0  0  0  0
   19.4883   20.3786   21.3890 H   0  0  0  0  0  0  0  0  0  0  0  0
   18.5539   19.3540   20.3162 H   0  0  0  0  0  0  0  0  0  0  0  0
   20.6872   19.2590   19.9575 C   0  0  0  0  0  0  0  0  0  0  0  0
   21.6362   19.3999   20.4895 H   0  0  0  0  0  0  0  0  0  0  0  0
   20.6368   20.0172   19.1654 H   0  0  0  0  0  0  0  0  0  0  0  0
   20.7056   18.2723   19.4768 H   0  0  0  0  0  0  0  0  0  0  0  0
   20.2506   18.8484   26.6975 C   0  0  0  0  0  0  0  0  0  0  0  0
   20.4904   19.8087   27.1591 H   0  0  0  0  0  0  0  0  0  0  0  0
   19.8271   18.1749   27.4459 H   0  0  0  0  0  0  0  0  0  0  0  0
   21.1537   18.4048   26.2735 H   0  0  0  0  0  0  0  0  0  0  0  0
  1  2  1  0  0  0  0
  1  3  1  0  0  0  0
  1  4  1  0  0  0  0
  4  5  1  0  0  0  0
  4  6  1  0  0  0  0
  4  7  1  0  0  0  0
  7  8  1  0  0  0  0
  7  9  1  0  0  0  0
  7 10  1  0  0  0  0
 10 11  1  0  0  0  0
 10 12  1  0  0  0  0
 10 13  1  0  0  0  0
 13 14  1  0  0  0  0
 13 15  1  0  0  0  0
 13 16  1  0  0  0  0
 16 17  1  0  0  0  0
 16 18  1  0  0  0  0
 16 19  1  0  0  0  0
 19 20  1  0  0  0  0
 19 21  1  0  0  0  0
 19 22  1  0  0  0  0
  1 23  1  0  0  0  0
 23 24  1  0  0  0  0
 23 25  1  0  0  0  0
 23 26  1  0  0  0  0
M  END
> <VM2 Rank>
100

> <Conf_Id>
207

> <Probability>
0.10

> <Sum Probability>
98.29

> <Delta G>
2.556

> <G>
78.022

> <E>
44.781

> <-TS>
33.241

> <U+W>
23.319

> <U>
73.340

> <W>
-50.021

> <W(PB)>
-52.189

> <W(SA)>
2.168

> <Valence>
3.289

> <Coulomb>
69.804

> <VdW>
0.247

> <VdW6>
-9.372

> <VdW12>
9.619

> <Bond>
0.294

> <Angle>
1.399

> <Pdih>
1.596

> <Idih>
0.000

> <Tether>
0.000

$$$$
VeraChem MOL file


 26 25  0  0  0  0  0  0  0  0999 V2000     
   19.7478   19.3123   25.9146 N   0  3  0  0  0  0  0  0  0  0  0  0
   20.6236   19.7830   26.1883 H   0  0  0  0  0  0  0  0  0  0  0  0
   19.2891   19.0666   26.8060 H   0  0  0  0  0  0  0  0  0  0  0  0
   20.0526   18.0388   25.1409 C   0  0  0  0  0  0  0  0  0  0  0  0
   19.1762   17.7800   24.5422 H   0  0  0  0  0  0  0  0  0  0  0  0
   20.1894   17.2492   25.8841 H   0  0  0  0  0  0  0  0  0  0  0  0
   21.3222   18.0836   24.2588 C   0  0  0  0  0  0  0  0  0  0  0  0
   22.1852   18.3372   24.8884 H   0  0  0  0  0  0  0  0  0  0  0  0
   21.5136   17.0709   23.8799 H   0  0  0  0  0  0  0  0  0  0  0  0
   21.2620   19.0606   23.0587 C   0  0  0  0  0  0  0  0  0  0  0  0
   22.2197   19.0119   22.5223 H   0  0  0  0  0  0  0  0  0  0  0  0
   21.1743   20.0926   23.4215 H   0  0  0  0  0  0  0  0  0  0  0  0
   20.1151   18.7415   22.0694 C   0  0  0  0  0  0  0  0  0  0  0  0
   20.2213   17.7099   21.7065 H   0  0  0  0  0  0  0  0  0  0  0  0
   19.1463   18.7975   22.5825 H   0  0  0  0  0  0  0  0  0  0  0  0
   20.1079   19.7119   20.8674 C   0  0  0  0  0  0  0  0  0  0  0  0
   21.0694   19.6549   20.3381 H   0  0  0  0  0  0  0  0  0  0  0  0
   20.0044   20.7457   21.2257 H   0  0  0  0  0  0  0  0  0  0  0  0
   18.9621   19.3946   19.8829 C   0  0  0  0  0  0  0  0  0  0  0  0
   18.9737   20.0933   19.0364 H   0  0  0  0  0  0  0  0  0  0  0  0
   17.9842   19.4780   20.3748 H   0  0  0  0  0  0  0  0  0  0  0  0
   19.0570   18.3774   19.4811 H   0  0  0  0  0  0  0  0  0  0  0  0
   18.8383   20.2466   25.1243 C   0  0  0  0  0  0  0  0  0  0  0  0
   19.3323   20.5458   24.1992 H   0  0  0  0  0  0  0  0  0  0  0  0
   17.9063   19.7264   24.8929 H   0  0  0  0  0  0  0  0  0  0  0  0
   18.6249   21.1311   25.7284 H   0  0  0  0  0  0  0  0  0  0  0  0
  1  2  1  0  0  0  0
  1  3  1  0  0  0  0
  1  4  1  0  0  0  0
  4  5  1  0  0  0  0
  4  6  1  0  0  0  0
  4  7  1  0  0  0  0
  7  8  1  0  0  0  0
  7  9  1  0  0  0  0
  7 10  1  0  0  0  0
 10 11  1  0  0  0  0
 10 12  1  0  0  0  0
 10 13  1  0  0  0  0
 13 14  1  0  0  0  0
 13 15  1  0  0  0  0
 13 16  1  0  0  0  0
 16 17  1  0  0  0  0
 16 18  1  0  0  0  0
 16 19  1  0  0  0  0
 19 20  1  0  0  0  0
 19 21  1  0  0  0  0
 19 22  1  0  0  0  0
  1 23  1  0  0  0  0
 23 24  1  0  0  0  0
 23 25  1  0  0  0  0
 23 26  1  0  0  0  0
M  END
> <VM2 Rank>
101

> <Conf_Id>
1582

> <Probability>
0.09

> <Sum Probability>
98.38

> <Delta G>
2.618

> <G>
78.084

> <E>
45.148

> <-TS>
32.936

> <U+W>
23.686

> <U>
73.514

> <W>
-49.828

> <W(PB)>
-52.066

> <W(SA)>
2.238

> <Valence>
4.050

> <Coulomb>
69.538

> <VdW>
-0.074

> <VdW6>
-8.211

> <VdW12>
8.137

> <Bond>
0.215

> <Angle>
1.189

> <Pdih>
2.646

> <Idih>
0.000

> <Tether>
0.000

$$$$
VeraChem MOL file


 26 25  0  0  0  0  0  0  0  0999 V2000     
   19.6048   19.2094   26.0741 N   0  3  0  0  0  0  0  0  0  0  0  0
   19.6471   19.0717   27.0963 H   0  0  0  0  0  0  0  0  0  0  0  0
   18.6420   18.9504   25.8106 H   0  0  0  0  0  0  0  0  0  0  0  0
   20.6045   18.2826   25.4009 C   0  0  0  0  0  0  0  0  0  0  0  0
   20.7335   17.4239   26.0647 H   0  0  0  0  0  0  0  0  0  0  0  0
   21.5643   18.8016   25.3390 H   0  0  0  0  0  0  0  0  0  0  0  0
   20.1888   17.7526   24.0103 C   0  0  0  0  0  0  0  0  0  0  0  0
   20.9467   17.0280   23.6843 H   0  0  0  0  0  0  0  0  0  0  0  0
   19.2471   17.1952   24.0999 H   0  0  0  0  0  0  0  0  0  0  0  0
   20.0455   18.8536   22.9334 C   0  0  0  0  0  0  0  0  0  0  0  0
   20.9563   19.4667   22.9218 H   0  0  0  0  0  0  0  0  0  0  0  0
   19.2099   19.5167   23.1920 H   0  0  0  0  0  0  0  0  0  0  0  0
   19.7953   18.2534   21.5288 C   0  0  0  0  0  0  0  0  0  0  0  0
   20.6522   17.6330   21.2322 H   0  0  0  0  0  0  0  0  0  0  0  0
   18.9281   17.5802   21.5754 H   0  0  0  0  0  0  0  0  0  0  0  0
   19.5302   19.3216   20.4402 C   0  0  0  0  0  0  0  0  0  0  0  0
   18.6565   19.9274   20.7186 H   0  0  0  0  0  0  0  0  0  0  0  0
   19.2643   18.8119   19.5035 H   0  0  0  0  0  0  0  0  0  0  0  0
   20.7411   20.2460   20.1778 C   0  0  0  0  0  0  0  0  0  0  0  0
   20.9702   20.8686   21.0514 H   0  0  0  0  0  0  0  0  0  0  0  0
   20.5338   20.9212   19.3375 H   0  0  0  0  0  0  0  0  0  0  0  0
   21.6362   19.6626   19.9262 H   0  0  0  0  0  0  0  0  0  0  0  0
   19.8979   20.6707   25.7515 C   0  0  0  0  0  0  0  0  0  0  0  0
   20.9065   20.9159   26.0911 H   0  0  0  0  0  0  0  0  0  0  0  0
   19.8229   20.8329   24.6755 H   0  0  0  0  0  0  0  0  0  0  0  0
   19.1727   21.3024   26.2692 H   0  0  0  0  0  0  0  0  0  0  0  0
  1  2  1  0  0  0  0
  1  3  1  0  0  0  0
  1  4  1  0  0  0  0
  4  5  1  0  0  0  0
  4  6  1  0  0  0  0
  4  7  1  0  0  0  0
  7  8  1  0  0  0  0
  7  9  1  0  0  0  0
  7 10  1  0  0  0  0
 10 11  1  0  0  0  0
 10 12  1  0  0  0  0
 10 13  1  0  0  0  0
 13 14  1  0  0  0  0
 13 15  1  0  0  0  0
 13 16  1  0  0  0  0
 16 17  1  0  0  0  0
 16 18  1  0  0  0  0
 16 19  1  0  0  0  0
 19 20  1  0  0  0  0
 19 21  1  0  0  0  0
 19 22  1  0  0  0  0
  1 23  1  0  0  0  0
 23 24  1  0  0  0  0
 23 25  1  0  0  0  0
 23 26  1  0  0  0  0
M  END
> <VM2 Rank>
102

> <Conf_Id>
1528

> <Probability>
0.07

> <Sum Probability>
98.45

> <Delta G>
2.735

> <G>
78.201

> <E>
45.573

> <-TS>
32.629

> <U+W>
24.111

> <U>
73.569

> <W>
-49.458

> <W(PB)>
-51.694

> <W(SA)>
2.236

> <Valence>
4.232

> <Coulomb>
68.955

> <VdW>
0.382

> <VdW6>
-7.610

> <VdW12>
7.992

> <Bond>
0.222

> <Angle>
1.074

> <Pdih>
2.936

> <Idih>
0.000

> <Tether>
0.000

$$$$
VeraChem MOL file


 26 25  0  0  0  0  0  0  0  0999 V2000     
   19.4547   18.7680   25.9584 N   0  3  0  0  0  0  0  0  0  0  0  0
   19.4431   18.5967   26.9764 H   0  0  0  0  0  0  0  0  0  0  0  0
   18.9913   17.9448   25.5449 H   0  0  0  0  0  0  0  0  0  0  0  0
   20.8953   18.8592   25.4810 C   0  0  0  0  0  0  0  0  0  0  0  0
   21.4956   18.2694   26.1786 H   0  0  0  0  0  0  0  0  0  0  0  0
   21.2179   19.9001   25.5633 H   0  0  0  0  0  0  0  0  0  0  0  0
   21.1590   18.3254   24.0551 C   0  0  0  0  0  0  0  0  0  0  0  0
   22.2419   18.3606   23.8767 H   0  0  0  0  0  0  0  0  0  0  0  0
   20.8719   17.2669   24.0035 H   0  0  0  0  0  0  0  0  0  0  0  0
   20.4353   19.1185   22.9417 C   0  0  0  0  0  0  0  0  0  0  0  0
   20.6553   20.1895   23.0509 H   0  0  0  0  0  0  0  0  0  0  0  0
   19.3516   18.9956   23.0566 H   0  0  0  0  0  0  0  0  0  0  0  0
   20.8582   18.6441   21.5303 C   0  0  0  0  0  0  0  0  0  0  0  0
   21.9518   18.7049   21.4429 H   0  0  0  0  0  0  0  0  0  0  0  0
   20.5966   17.5847   21.4015 H   0  0  0  0  0  0  0  0  0  0  0  0
   20.2283   19.4749   20.3859 C   0  0  0  0  0  0  0  0  0  0  0  0
   20.6592   19.1425   19.4310 H   0  0  0  0  0  0  0  0  0  0  0  0
   20.5073   20.5320   20.4969 H   0  0  0  0  0  0  0  0  0  0  0  0
   18.6895   19.3489   20.3082 C   0  0  0  0  0  0  0  0  0  0  0  0
   18.3826   18.2979   20.2289 H   0  0  0  0  0  0  0  0  0  0  0  0
   18.3051   19.8778   19.4265 H   0  0  0  0  0  0  0  0  0  0  0  0
   18.2037   19.7839   21.1903 H   0  0  0  0  0  0  0  0  0  0  0  0
   18.6877   20.0510   25.6563 C   0  0  0  0  0  0  0  0  0  0  0  0
   18.6678   20.2238   24.5796 H   0  0  0  0  0  0  0  0  0  0  0  0
   17.6665   19.9524   26.0311 H   0  0  0  0  0  0  0  0  0  0  0  0
   19.1820   20.8880   26.1541 H   0  0  0  0  0  0  0  0  0  0  0  0
  1  2  1  0  0  0  0
  1  3  1  0  0  0  0
  1  4  1  0  0  0  0
  4  5  1  0  0  0  0
  4  6  1  0  0  0  0
  4  7  1  0  0  0  0
  7  8  1  0  0  0  0
  7  9  1  0  0  0  0
  7 10  1  0  0  0  0
 10 11  1  0  0  0  0
 10 12  1  0  0  0  0
 10 13  1  0  0  0  0
 13 14  1  0  0  0  0
 13 15  1  0  0  0  0
 13 16  1  0  0  0  0
 16 17  1  0  0  0  0
 16 18  1  0  0  0  0
 16 19  1  0  0  0  0
 19 20  1  0  0  0  0
 19 21  1  0  0  0  0
 19 22  1  0  0  0  0
  1 23  1  0  0  0  0
 23 24  1  0  0  0  0
 23 25  1  0  0  0  0
 23 26  1  0  0  0  0
M  END
> <VM2 Rank>
103

> <Conf_Id>
1060

> <Probability>
0.07

> <Sum Probability>
98.52

> <Delta G>
2.741

> <G>
78.207

> <E>
45.579

> <-TS>
32.628

> <U+W>
24.117

> <U>
73.676

> <W>
-49.559

> <W(PB)>
-51.786

> <W(SA)>
2.228

> <Valence>
4.236

> <Coulomb>
69.060

> <VdW>
0.380

> <VdW6>
-7.630

> <VdW12>
8.009

> <Bond>
0.224

> <Angle>
1.075

> <Pdih>
2.937

> <Idih>
0.000

> <Tether>
0.000

$$$$
VeraChem MOL file


 26 25  0  0  0  0  0  0  0  0999 V2000     
   20.7877   18.6261   25.3680 N   0  3  0  0  0  0  0  0  0  0  0  0
   21.5259   18.5565   26.0864 H   0  0  0  0  0  0  0  0  0  0  0  0
   21.2641   18.4321   24.4756 H   0  0  0  0  0  0  0  0  0  0  0  0
   20.2217   20.0362   25.3578 C   0  0  0  0  0  0  0  0  0  0  0  0
   21.0660   20.7259   25.2806 H   0  0  0  0  0  0  0  0  0  0  0  0
   19.7482   20.1989   26.3293 H   0  0  0  0  0  0  0  0  0  0  0  0
   19.2040   20.3629   24.2393 C   0  0  0  0  0  0  0  0  0  0  0  0
   18.3351   19.6950   24.2993 H   0  0  0  0  0  0  0  0  0  0  0  0
   18.8164   21.3699   24.4428 H   0  0  0  0  0  0  0  0  0  0  0  0
   19.7950   20.3600   22.8056 C   0  0  0  0  0  0  0  0  0  0  0  0
   20.7857   20.8355   22.8092 H   0  0  0  0  0  0  0  0  0  0  0  0
   19.1566   20.9924   22.1732 H   0  0  0  0  0  0  0  0  0  0  0  0
   19.8756   18.9557   22.1580 C   0  0  0  0  0  0  0  0  0  0  0  0
   20.5488   18.3064   22.7278 H   0  0  0  0  0  0  0  0  0  0  0  0
   18.8838   18.4834   22.1823 H   0  0  0  0  0  0  0  0  0  0  0  0
   20.3715   19.0272   20.6964 C   0  0  0  0  0  0  0  0  0  0  0  0
   21.3620   19.5022   20.6633 H   0  0  0  0  0  0  0  0  0  0  0  0
   19.6963   19.6617   20.1052 H   0  0  0  0  0  0  0  0  0  0  0  0
   20.4532   17.6274   20.0508 C   0  0  0  0  0  0  0  0  0  0  0  0
   19.4697   17.1398   20.0391 H   0  0  0  0  0  0  0  0  0  0  0  0
   21.1495   16.9793   20.5987 H   0  0  0  0  0  0  0  0  0  0  0  0
   20.8056   17.6989   19.0136 H   0  0  0  0  0  0  0  0  0  0  0  0
   19.6993   17.5946   25.6411 C   0  0  0  0  0  0  0  0  0  0  0  0
   20.1495   16.6000   25.6742 H   0  0  0  0  0  0  0  0  0  0  0  0
   19.2266   17.8175   26.6001 H   0  0  0  0  0  0  0  0  0  0  0  0
   18.9555   17.6348   24.8428 H   0  0  0  0  0  0  0  0  0  0  0  0
  1  2  1  0  0  0  0
  1  3  1  0  0  0  0
  1  4  1  0  0  0  0
  4  5  1  0  0  0  0
  4  6  1  0  0  0  0
  4  7  1  0  0  0  0
  7  8  1  0  0  0  0
  7  9  1  0  0  0  0
  7 10  1  0  0  0  0
 10 11  1  0  0  0  0
 10 12  1  0  0  0  0
 10 13  1  0  0  0  0
 13 14  1  0  0  0  0
 13 15  1  0  0  0  0
 13 16  1  0  0  0  0
 16 17  1  0  0  0  0
 16 18  1  0  0  0  0
 16 19  1  0  0  0  0
 19 20  1  0  0  0  0
 19 21  1  0  0  0  0
 19 22  1  0  0  0  0
  1 23  1  0  0  0  0
 23 24  1  0  0  0  0
 23 25  1  0  0  0  0
 23 26  1  0  0  0  0
M  END
> <VM2 Rank>
104

> <Conf_Id>
1302

> <Probability>
0.06

> <Sum Probability>
98.58

> <Delta G>
2.812

> <G>
78.278

> <E>
45.919

> <-TS>
32.359

> <U+W>
24.457

> <U>
74.362

> <W>
-49.905

> <W(PB)>
-52.142

> <W(SA)>
2.237

> <Valence>
3.851

> <Coulomb>
70.384

> <VdW>
0.128

> <VdW6>
-7.956

> <VdW12>
8.084

> <Bond>
0.231

> <Angle>
1.282

> <Pdih>
2.337

> <Idih>
0.000

> <Tether>
0.000

$$$$
VeraChem MOL file


 26 25  0  0  0  0  0  0  0  0999 V2000     
   19.9715   18.6886   26.2346 N   0  3  0  0  0  0  0  0  0  0  0  0
   20.6338   17.9337   26.0003 H   0  0  0  0  0  0  0  0  0  0  0  0
   19.5241   18.3870   27.1146 H   0  0  0  0  0  0  0  0  0  0  0  0
   18.9132   18.8182   25.1509 C   0  0  0  0  0  0  0  0  0  0  0  0
   18.5327   19.8426   25.1648 H   0  0  0  0  0  0  0  0  0  0  0  0
   18.0914   18.1551   25.4332 H   0  0  0  0  0  0  0  0  0  0  0  0
   19.3692   18.4334   23.7256 C   0  0  0  0  0  0  0  0  0  0  0  0
   19.7019   17.3871   23.7206 H   0  0  0  0  0  0  0  0  0  0  0  0
   18.4876   18.4807   23.0752 H   0  0  0  0  0  0  0  0  0  0  0  0
   20.4884   19.3411   23.1568 C   0  0  0  0  0  0  0  0  0  0  0  0
   21.3817   19.2467   23.7873 H   0  0  0  0  0  0  0  0  0  0  0  0
   20.1777   20.3937   23.2086 H   0  0  0  0  0  0  0  0  0  0  0  0
   20.8950   18.9892   21.7041 C   0  0  0  0  0  0  0  0  0  0  0  0
   21.7897   19.5720   21.4444 H   0  0  0  0  0  0  0  0  0  0  0  0
   21.1904   17.9323   21.6490 H   0  0  0  0  0  0  0  0  0  0  0  0
   19.7904   19.2793   20.6599 C   0  0  0  0  0  0  0  0  0  0  0  0
   19.4572   20.3225   20.7520 H   0  0  0  0  0  0  0  0  0  0  0  0
   18.9128   18.6470   20.8474 H   0  0  0  0  0  0  0  0  0  0  0  0
   20.2881   19.0274   19.2204 C   0  0  0  0  0  0  0  0  0  0  0  0
   20.6014   17.9836   19.0882 H   0  0  0  0  0  0  0  0  0  0  0  0
   21.1418   19.6738   18.9783 H   0  0  0  0  0  0  0  0  0  0  0  0
   19.4924   19.2349   18.4932 H   0  0  0  0  0  0  0  0  0  0  0  0
   20.6922   20.0127   26.4646 C   0  0  0  0  0  0  0  0  0  0  0  0
   21.1896   20.3260   25.5458 H   0  0  0  0  0  0  0  0  0  0  0  0
   19.9629   20.7686   26.7639 H   0  0  0  0  0  0  0  0  0  0  0  0
   21.4324   19.8828   27.2572 H   0  0  0  0  0  0  0  0  0  0  0  0
  1  2  1  0  0  0  0
  1  3  1  0  0  0  0
  1  4  1  0  0  0  0
  4  5  1  0  0  0  0
  4  6  1  0  0  0  0
  4  7  1  0  0  0  0
  7  8  1  0  0  0  0
  7  9  1  0  0  0  0
  7 10  1  0  0  0  0
 10 11  1  0  0  0  0
 10 12  1  0  0  0  0
 10 13  1  0  0  0  0
 13 14  1  0  0  0  0
 13 15  1  0  0  0  0
 13 16  1  0  0  0  0
 16 17  1  0  0  0  0
 16 18  1  0  0  0  0
 16 19  1  0  0  0  0
 19 20  1  0  0  0  0
 19 21  1  0  0  0  0
 19 22  1  0  0  0  0
  1 23  1  0  0  0  0
 23 24  1  0  0  0  0
 23 25  1  0  0  0  0
 23 26  1  0  0  0  0
M  END
> <VM2 Rank>
105

> <Conf_Id>
549

> <Probability>
0.06

> <Sum Probability>
98.64

> <Delta G>
2.829

> <G>
78.295

> <E>
45.749

> <-TS>
32.545

> <U+W>
24.287

> <U>
73.757

> <W>
-49.470

> <W(PB)>
-51.700

> <W(SA)>
2.230

> <Valence>
4.423

> <Coulomb>
68.887

> <VdW>
0.448

> <VdW6>
-7.490

> <VdW12>
7.937

> <Bond>
0.232

> <Angle>
1.146

> <Pdih>
3.045

> <Idih>
0.000

> <Tether>
0.000

$$$$
VeraChem MOL file


 26 25  0  0  0  0  0  0  0  0999 V2000     
   19.5318   18.8529   25.9063 N   0  3  0  0  0  0  0  0  0  0  0  0
   20.2368   18.4849   26.5638 H   0  0  0  0  0  0  0  0  0  0  0  0
   18.8981   18.0620   25.7125 H   0  0  0  0  0  0  0  0  0  0  0  0
   20.2002   19.3140   24.6270 C   0  0  0  0  0  0  0  0  0  0  0  0
   20.8703   20.1397   24.8792 H   0  0  0  0  0  0  0  0  0  0  0  0
   19.4209   19.6974   23.9667 H   0  0  0  0  0  0  0  0  0  0  0  0
   20.9984   18.1990   23.9221 C   0  0  0  0  0  0  0  0  0  0  0  0
   21.7679   17.8391   24.6182 H   0  0  0  0  0  0  0  0  0  0  0  0
   20.3483   17.3404   23.7076 H   0  0  0  0  0  0  0  0  0  0  0  0
   21.6941   18.6782   22.6229 C   0  0  0  0  0  0  0  0  0  0  0  0
   22.5841   18.0541   22.4619 H   0  0  0  0  0  0  0  0  0  0  0  0
   22.0699   19.7026   22.7531 H   0  0  0  0  0  0  0  0  0  0  0  0
   20.8230   18.5886   21.3427 C   0  0  0  0  0  0  0  0  0  0  0  0
   21.4435   18.8868   20.4862 H   0  0  0  0  0  0  0  0  0  0  0  0
   20.5417   17.5415   21.1640 H   0  0  0  0  0  0  0  0  0  0  0  0
   19.5491   19.4646   21.3668 C   0  0  0  0  0  0  0  0  0  0  0  0
   19.8072   20.4923   21.6585 H   0  0  0  0  0  0  0  0  0  0  0  0
   18.8448   19.0802   22.1160 H   0  0  0  0  0  0  0  0  0  0  0  0
   18.8451   19.4842   19.9931 C   0  0  0  0  0  0  0  0  0  0  0  0
   19.5019   19.8999   19.2179 H   0  0  0  0  0  0  0  0  0  0  0  0
   17.9379   20.1011   20.0312 H   0  0  0  0  0  0  0  0  0  0  0  0
   18.5515   18.4720   19.6857 H   0  0  0  0  0  0  0  0  0  0  0  0
   18.7663   20.0085   26.5360 C   0  0  0  0  0  0  0  0  0  0  0  0
   18.0048   20.3588   25.8358 H   0  0  0  0  0  0  0  0  0  0  0  0
   18.2902   19.6633   27.4565 H   0  0  0  0  0  0  0  0  0  0  0  0
   19.4622   20.8193   26.7623 H   0  0  0  0  0  0  0  0  0  0  0  0
  1  2  1  0  0  0  0
  1  3  1  0  0  0  0
  1  4  1  0  0  0  0
  4  5  1  0  0  0  0
  4  6  1  0  0  0  0
  4  7  1  0  0  0  0
  7  8  1  0  0  0  0
  7  9  1  0  0  0  0
  7 10  1  0  0  0  0
 10 11  1  0  0  0  0
 10 12  1  0  0  0  0
 10 13  1  0  0  0  0
 13 14  1  0  0  0  0
 13 15  1  0  0  0  0
 13 16  1  0  0  0  0
 16 17  1  0  0  0  0
 16 18  1  0  0  0  0
 16 19  1  0  0  0  0
 19 20  1  0  0  0  0
 19 21  1  0  0  0  0
 19 22  1  0  0  0  0
  1 23  1  0  0  0  0
 23 24  1  0  0  0  0
 23 25  1  0  0  0  0
 23 26  1  0  0  0  0
M  END
> <VM2 Rank>
106

> <Conf_Id>
76

> <Probability>
0.05

> <Sum Probability>
98.69

> <Delta G>
2.918

> <G>
78.384

> <E>
45.898

> <-TS>
32.486

> <U+W>
24.436

> <U>
73.891

> <W>
-49.455

> <W(PB)>
-51.734

> <W(SA)>
2.278

> <Valence>
4.111

> <Coulomb>
69.672

> <VdW>
0.108

> <VdW6>
-6.998

> <VdW12>
7.106

> <Bond>
0.196

> <Angle>
1.122

> <Pdih>
2.794

> <Idih>
0.000

> <Tether>
0.000

$$$$
VeraChem MOL file


 26 25  0  0  0  0  0  0  0  0999 V2000     
   19.7576   18.6751   26.3424 N   0  3  0  0  0  0  0  0  0  0  0  0
   19.9982   17.6720   26.3453 H   0  0  0  0  0  0  0  0  0  0  0  0
   19.2211   18.8186   27.2127 H   0  0  0  0  0  0  0  0  0  0  0  0
   18.8689   18.9969   25.1485 C   0  0  0  0  0  0  0  0  0  0  0  0
   18.6293   20.0629   25.1703 H   0  0  0  0  0  0  0  0  0  0  0  0
   17.9386   18.4445   25.3046 H   0  0  0  0  0  0  0  0  0  0  0  0
   19.4345   18.6059   23.7649 C   0  0  0  0  0  0  0  0  0  0  0  0
   20.0823   17.7246   23.8602 H   0  0  0  0  0  0  0  0  0  0  0  0
   18.5882   18.3026   23.1361 H   0  0  0  0  0  0  0  0  0  0  0  0
   20.1886   19.7658   23.0660 C   0  0  0  0  0  0  0  0  0  0  0  0
   20.9799   20.1454   23.7231 H   0  0  0  0  0  0  0  0  0  0  0  0
   19.5001   20.6066   22.9039 H   0  0  0  0  0  0  0  0  0  0  0  0
   20.8353   19.3598   21.7184 C   0  0  0  0  0  0  0  0  0  0  0  0
   21.4380   20.2034   21.3542 H   0  0  0  0  0  0  0  0  0  0  0  0
   21.5362   18.5296   21.8820 H   0  0  0  0  0  0  0  0  0  0  0  0
   19.8091   18.9690   20.6283 C   0  0  0  0  0  0  0  0  0  0  0  0
   19.0747   19.7770   20.5029 H   0  0  0  0  0  0  0  0  0  0  0  0
   19.2503   18.0752   20.9356 H   0  0  0  0  0  0  0  0  0  0  0  0
   20.4958   18.6880   19.2746 C   0  0  0  0  0  0  0  0  0  0  0  0
   21.2157   17.8636   19.3610 H   0  0  0  0  0  0  0  0  0  0  0  0
   21.0327   19.5742   18.9120 H   0  0  0  0  0  0  0  0  0  0  0  0
   19.7546   18.4095   18.5143 H   0  0  0  0  0  0  0  0  0  0  0  0
   21.0183   19.5295   26.3738 C   0  0  0  0  0  0  0  0  0  0  0  0
   20.7385   20.5848   26.3474 H   0  0  0  0  0  0  0  0  0  0  0  0
   21.5703   19.3166   27.2919 H   0  0  0  0  0  0  0  0  0  0  0  0
   21.6395   19.2849   25.5103 H   0  0  0  0  0  0  0  0  0  0  0  0
  1  2  1  0  0  0  0
  1  3  1  0  0  0  0
  1  4  1  0  0  0  0
  4  5  1  0  0  0  0
  4  6  1  0  0  0  0
  4  7  1  0  0  0  0
  7  8  1  0  0  0  0
  7  9  1  0  0  0  0
  7 10  1  0  0  0  0
 10 11  1  0  0  0  0
 10 12  1  0  0  0  0
 10 13  1  0  0  0  0
 13 14  1  0  0  0  0
 13 15  1  0  0  0  0
 13 16  1  0  0  0  0
 16 17  1  0  0  0  0
 16 18  1  0  0  0  0
 16 19  1  0  0  0  0
 19 20  1  0  0  0  0
 19 21  1  0  0  0  0
 19 22  1  0  0  0  0
  1 23  1  0  0  0  0
 23 24  1  0  0  0  0
 23 25  1  0  0  0  0
 23 26  1  0  0  0  0
M  END
> <VM2 Rank>
107

> <Conf_Id>
1478

> <Probability>
0.05

> <Sum Probability>
98.74

> <Delta G>
2.925

> <G>
78.391

> <E>
45.923

> <-TS>
32.468

> <U+W>
24.461

> <U>
73.840

> <W>
-49.380

> <W(PB)>
-51.644

> <W(SA)>
2.264

> <Valence>
4.494

> <Coulomb>
68.796

> <VdW>
0.550

> <VdW6>
-7.478

> <VdW12>
8.028

> <Bond>
0.238

> <Angle>
1.175

> <Pdih>
3.082

> <Idih>
0.000

> <Tether>
0.000

$$$$
VeraChem MOL file


 26 25  0  0  0  0  0  0  0  0999 V2000     
   20.0000   18.6916   26.2356 N   0  3  0  0  0  0  0  0  0  0  0  0
   20.4362   18.4801   27.1470 H   0  0  0  0  0  0  0  0  0  0  0  0
   19.5214   17.8204   25.9610 H   0  0  0  0  0  0  0  0  0  0  0  0
   21.0837   19.0395   25.2278 C   0  0  0  0  0  0  0  0  0  0  0  0
   22.0005   18.5536   25.5717 H   0  0  0  0  0  0  0  0  0  0  0  0
   21.2480   20.1194   25.2609 H   0  0  0  0  0  0  0  0  0  0  0  0
   20.8156   18.5807   23.7769 C   0  0  0  0  0  0  0  0  0  0  0  0
   21.7129   18.8095   23.1895 H   0  0  0  0  0  0  0  0  0  0  0  0
   20.7019   17.4889   23.7561 H   0  0  0  0  0  0  0  0  0  0  0  0
   19.5790   19.2481   23.1246 C   0  0  0  0  0  0  0  0  0  0  0  0
   19.6667   20.3414   23.1906 H   0  0  0  0  0  0  0  0  0  0  0  0
   18.6811   18.9710   23.6916 H   0  0  0  0  0  0  0  0  0  0  0  0
   19.3545   18.8320   21.6495 C   0  0  0  0  0  0  0  0  0  0  0  0
   19.2831   17.7377   21.5814 H   0  0  0  0  0  0  0  0  0  0  0  0
   18.3812   19.2241   21.3235 H   0  0  0  0  0  0  0  0  0  0  0  0
   20.4483   19.3465   20.6832 C   0  0  0  0  0  0  0  0  0  0  0  0
   21.4201   18.9030   20.9363 H   0  0  0  0  0  0  0  0  0  0  0  0
   20.5570   20.4348   20.7911 H   0  0  0  0  0  0  0  0  0  0  0  0
   20.1138   19.0098   19.2143 C   0  0  0  0  0  0  0  0  0  0  0  0
   20.0277   17.9252   19.0678 H   0  0  0  0  0  0  0  0  0  0  0  0
   20.9002   19.3788   18.5432 H   0  0  0  0  0  0  0  0  0  0  0  0
   19.1664   19.4724   18.9083 H   0  0  0  0  0  0  0  0  0  0  0  0
   19.0130   19.8417   26.4051 C   0  0  0  0  0  0  0  0  0  0  0  0
   18.5282   20.0547   25.4514 H   0  0  0  0  0  0  0  0  0  0  0  0
   18.2604   19.5596   27.1448 H   0  0  0  0  0  0  0  0  0  0  0  0
   19.5522   20.7269   26.7492 H   0  0  0  0  0  0  0  0  0  0  0  0
  1  2  1  0  0  0  0
  1  3  1  0  0  0  0
  1  4  1  0  0  0  0
  4  5  1  0  0  0  0
  4  6  1  0  0  0  0
  4  7  1  0  0  0  0
  7  8  1  0  0  0  0
  7  9  1  0  0  0  0
  7 10  1  0  0  0  0
 10 11  1  0  0  0  0
 10 12  1  0  0  0  0
 10 13  1  0  0  0  0
 13 14  1  0  0  0  0
 13 15  1  0  0  0  0
 13 16  1  0  0  0  0
 16 17  1  0  0  0  0
 16 18  1  0  0  0  0
 16 19  1  0  0  0  0
 19 20  1  0  0  0  0
 19 21  1  0  0  0  0
 19 22  1  0  0  0  0
  1 23  1  0  0  0  0
 23 24  1  0  0  0  0
 23 25  1  0  0  0  0
 23 26  1  0  0  0  0
M  END
> <VM2 Rank>
108

> <Conf_Id>
1276

> <Probability>
0.05

> <Sum Probability>
98.79

> <Delta G>
2.932

> <G>
78.398

> <E>
45.852

> <-TS>
32.546

> <U+W>
24.390

> <U>
73.757

> <W>
-49.367

> <W(PB)>
-51.644

> <W(SA)>
2.277

> <Valence>
4.423

> <Coulomb>
68.887

> <VdW>
0.447

> <VdW6>
-7.490

> <VdW12>
7.937

> <Bond>
0.232

> <Angle>
1.146

> <Pdih>
3.045

> <Idih>
0.000

> <Tether>
0.000

$$$$
VeraChem MOL file


 26 25  0  0  0  0  0  0  0  0999 V2000     
   20.2044   18.7208   26.3583 N   0  3  0  0  0  0  0  0  0  0  0  0
   20.6386   18.9636   27.2629 H   0  0  0  0  0  0  0  0  0  0  0  0
   20.1719   17.6898   26.3516 H   0  0  0  0  0  0  0  0  0  0  0  0
   21.0911   19.2240   25.2272 C   0  0  0  0  0  0  0  0  0  0  0  0
   22.1005   18.8698   25.4520 H   0  0  0  0  0  0  0  0  0  0  0  0
   21.1083   20.3162   25.2580 H   0  0  0  0  0  0  0  0  0  0  0  0
   20.7144   18.7367   23.8102 C   0  0  0  0  0  0  0  0  0  0  0  0
   21.6464   18.6151   23.2445 H   0  0  0  0  0  0  0  0  0  0  0  0
   20.2529   17.7420   23.8663 H   0  0  0  0  0  0  0  0  0  0  0  0
   19.7923   19.7253   23.0520 C   0  0  0  0  0  0  0  0  0  0  0  0
   20.3064   20.6890   22.9325 H   0  0  0  0  0  0  0  0  0  0  0  0
   18.8966   19.9324   23.6493 H   0  0  0  0  0  0  0  0  0  0  0  0
   19.3370   19.2067   21.6653 C   0  0  0  0  0  0  0  0  0  0  0  0
   18.8087   18.2507   21.7853 H   0  0  0  0  0  0  0  0  0  0  0  0
   18.6034   19.9136   21.2538 H   0  0  0  0  0  0  0  0  0  0  0  0
   20.4949   19.0392   20.6526 C   0  0  0  0  0  0  0  0  0  0  0  0
   21.1999   18.2746   21.0047 H   0  0  0  0  0  0  0  0  0  0  0  0
   21.0577   19.9798   20.5732 H   0  0  0  0  0  0  0  0  0  0  0  0
   19.9758   18.6348   19.2562 C   0  0  0  0  0  0  0  0  0  0  0  0
   19.2976   19.3968   18.8505 H   0  0  0  0  0  0  0  0  0  0  0  0
   19.4331   17.6814   19.2978 H   0  0  0  0  0  0  0  0  0  0  0  0
   20.8094   18.5172   18.5517 H   0  0  0  0  0  0  0  0  0  0  0  0
   18.7981   19.3026   26.2952 C   0  0  0  0  0  0  0  0  0  0  0  0
   18.3011   18.9437   25.3921 H   0  0  0  0  0  0  0  0  0  0  0  0
   18.2375   18.9760   27.1739 H   0  0  0  0  0  0  0  0  0  0  0  0
   18.8599   20.3928   26.2807 H   0  0  0  0  0  0  0  0  0  0  0  0
  1  2  1  0  0  0  0
  1  3  1  0  0  0  0
  1  4  1  0  0  0  0
  4  5  1  0  0  0  0
  4  6  1  0  0  0  0
  4  7  1  0  0  0  0
  7  8  1  0  0  0  0
  7  9  1  0  0  0  0
  7 10  1  0  0  0  0
 10 11  1  0  0  0  0
 10 12  1  0  0  0  0
 10 13  1  0  0  0  0
 13 14  1  0  0  0  0
 13 15  1  0  0  0  0
 13 16  1  0  0  0  0
 16 17  1  0  0  0  0
 16 18  1  0  0  0  0
 16 19  1  0  0  0  0
 19 20  1  0  0  0  0
 19 21  1  0  0  0  0
 19 22  1  0  0  0  0
  1 23  1  0  0  0  0
 23 24  1  0  0  0  0
 23 25  1  0  0  0  0
 23 26  1  0  0  0  0
M  END
> <VM2 Rank>
109

> <Conf_Id>
1477

> <Probability>
0.05

> <Sum Probability>
98.84

> <Delta G>
2.949

> <G>
78.415

> <E>
45.946

> <-TS>
32.469

> <U+W>
24.484

> <U>
73.840

> <W>
-49.356

> <W(PB)>
-51.612

> <W(SA)>
2.256

> <Valence>
4.494

> <Coulomb>
68.796

> <VdW>
0.550

> <VdW6>
-7.478

> <VdW12>
8.028

> <Bond>
0.238

> <Angle>
1.175

> <Pdih>
3.081

> <Idih>
0.000

> <Tether>
0.000

$$$$
VeraChem MOL file


 26 25  0  0  0  0  0  0  0  0999 V2000     
   20.2126   19.0423   26.0018 N   0  3  0  0  0  0  0  0  0  0  0  0
   20.7513   18.1769   26.1620 H   0  0  0  0  0  0  0  0  0  0  0  0
   19.3450   18.9309   26.5492 H   0  0  0  0  0  0  0  0  0  0  0  0
   19.8869   19.1909   24.5294 C   0  0  0  0  0  0  0  0  0  0  0  0
   20.8317   19.2994   23.9922 H   0  0  0  0  0  0  0  0  0  0  0  0
   19.3073   20.1090   24.4047 H   0  0  0  0  0  0  0  0  0  0  0  0
   19.1006   17.9983   23.9559 C   0  0  0  0  0  0  0  0  0  0  0  0
   19.7060   17.0864   24.0441 H   0  0  0  0  0  0  0  0  0  0  0  0
   18.2042   17.8364   24.5692 H   0  0  0  0  0  0  0  0  0  0  0  0
   18.6618   18.1883   22.4818 C   0  0  0  0  0  0  0  0  0  0  0  0
   17.9891   19.0528   22.3949 H   0  0  0  0  0  0  0  0  0  0  0  0
   18.0583   17.3138   22.2016 H   0  0  0  0  0  0  0  0  0  0  0  0
   19.8298   18.3121   21.4683 C   0  0  0  0  0  0  0  0  0  0  0  0
   20.6765   17.6903   21.7905 H   0  0  0  0  0  0  0  0  0  0  0  0
   19.4966   17.8947   20.5079 H   0  0  0  0  0  0  0  0  0  0  0  0
   20.2937   19.7685   21.2214 C   0  0  0  0  0  0  0  0  0  0  0  0
   20.6430   20.2307   22.1519 H   0  0  0  0  0  0  0  0  0  0  0  0
   19.4441   20.3718   20.8719 H   0  0  0  0  0  0  0  0  0  0  0  0
   21.4266   19.8338   20.1749 C   0  0  0  0  0  0  0  0  0  0  0  0
   22.3054   19.2669   20.5088 H   0  0  0  0  0  0  0  0  0  0  0  0
   21.7400   20.8724   20.0070 H   0  0  0  0  0  0  0  0  0  0  0  0
   21.0995   19.4214   19.2116 H   0  0  0  0  0  0  0  0  0  0  0  0
   20.9958   20.2557   26.4834 C   0  0  0  0  0  0  0  0  0  0  0  0
   20.3933   21.1544   26.3344 H   0  0  0  0  0  0  0  0  0  0  0  0
   21.2240   20.1364   27.5450 H   0  0  0  0  0  0  0  0  0  0  0  0
   21.9241   20.3336   25.9132 H   0  0  0  0  0  0  0  0  0  0  0  0
  1  2  1  0  0  0  0
  1  3  1  0  0  0  0
  1  4  1  0  0  0  0
  4  5  1  0  0  0  0
  4  6  1  0  0  0  0
  4  7  1  0  0  0  0
  7  8  1  0  0  0  0
  7  9  1  0  0  0  0
  7 10  1  0  0  0  0
 10 11  1  0  0  0  0
 10 12  1  0  0  0  0
 10 13  1  0  0  0  0
 13 14  1  0  0  0  0
 13 15  1  0  0  0  0
 13 16  1  0  0  0  0
 16 17  1  0  0  0  0
 16 18  1  0  0  0  0
 16 19  1  0  0  0  0
 19 20  1  0  0  0  0
 19 21  1  0  0  0  0
 19 22  1  0  0  0  0
  1 23  1  0  0  0  0
 23 24  1  0  0  0  0
 23 25  1  0  0  0  0
 23 26  1  0  0  0  0
M  END
> <VM2 Rank>
110

> <Conf_Id>
1327

> <Probability>
0.05

> <Sum Probability>
98.89

> <Delta G>
2.953

> <G>
78.419

> <E>
46.118

> <-TS>
32.300

> <U+W>
24.656

> <U>
73.909

> <W>
-49.253

> <W(PB)>
-51.550

> <W(SA)>
2.297

> <Valence>
4.252

> <Coulomb>
69.491

> <VdW>
0.167

> <VdW6>
-6.832

> <VdW12>
6.998

> <Bond>
0.206

> <Angle>
1.085

> <Pdih>
2.961

> <Idih>
0.000

> <Tether>
0.000

$$$$
VeraChem MOL file


 26 25  0  0  0  0  0  0  0  0999 V2000     
   19.7000   18.1751   25.2773 N   0  3  0  0  0  0  0  0  0  0  0  0
   19.8412   17.7640   24.3440 H   0  0  0  0  0  0  0  0  0  0  0  0
   19.0146   17.5599   25.7440 H   0  0  0  0  0  0  0  0  0  0  0  0
   19.1217   19.5762   25.1531 C   0  0  0  0  0  0  0  0  0  0  0  0
   19.0616   19.9843   26.1652 H   0  0  0  0  0  0  0  0  0  0  0  0
   18.1024   19.4856   24.7693 H   0  0  0  0  0  0  0  0  0  0  0  0
   19.9138   20.5572   24.2577 C   0  0  0  0  0  0  0  0  0  0  0  0
   19.6002   21.5747   24.5257 H   0  0  0  0  0  0  0  0  0  0  0  0
   20.9858   20.5079   24.4866 H   0  0  0  0  0  0  0  0  0  0  0  0
   19.6807   20.3770   22.7356 C   0  0  0  0  0  0  0  0  0  0  0  0
   20.1848   21.2030   22.2150 H   0  0  0  0  0  0  0  0  0  0  0  0
   18.6100   20.4840   22.5127 H   0  0  0  0  0  0  0  0  0  0  0  0
   20.1975   19.0360   22.1620 C   0  0  0  0  0  0  0  0  0  0  0  0
   21.2310   18.8647   22.4939 H   0  0  0  0  0  0  0  0  0  0  0  0
   19.5883   18.2080   22.5441 H   0  0  0  0  0  0  0  0  0  0  0  0
   20.1444   19.0142   20.6181 C   0  0  0  0  0  0  0  0  0  0  0  0
   20.7569   19.8320   20.2131 H   0  0  0  0  0  0  0  0  0  0  0  0
   19.1140   19.1928   20.2796 H   0  0  0  0  0  0  0  0  0  0  0  0
   20.6454   17.6702   20.0474 C   0  0  0  0  0  0  0  0  0  0  0  0
   21.6854   17.4790   20.3424 H   0  0  0  0  0  0  0  0  0  0  0  0
   20.6022   17.6748   18.9506 H   0  0  0  0  0  0  0  0  0  0  0  0
   20.0295   16.8347   20.4047 H   0  0  0  0  0  0  0  0  0  0  0  0
   21.0046   18.1842   26.0657 C   0  0  0  0  0  0  0  0  0  0  0  0
   20.8228   18.6105   27.0547 H   0  0  0  0  0  0  0  0  0  0  0  0
   21.3674   17.1590   26.1677 H   0  0  0  0  0  0  0  0  0  0  0  0
   21.7456   18.7840   25.5340 H   0  0  0  0  0  0  0  0  0  0  0  0
  1  2  1  0  0  0  0
  1  3  1  0  0  0  0
  1  4  1  0  0  0  0
  4  5  1  0  0  0  0
  4  6  1  0  0  0  0
  4  7  1  0  0  0  0
  7  8  1  0  0  0  0
  7  9  1  0  0  0  0
  7 10  1  0  0  0  0
 10 11  1  0  0  0  0
 10 12  1  0  0  0  0
 10 13  1  0  0  0  0
 13 14  1  0  0  0  0
 13 15  1  0  0  0  0
 13 16  1  0  0  0  0
 16 17  1  0  0  0  0
 16 18  1  0  0  0  0
 16 19  1  0  0  0  0
 19 20  1  0  0  0  0
 19 21  1  0  0  0  0
 19 22  1  0  0  0  0
  1 23  1  0  0  0  0
 23 24  1  0  0  0  0
 23 25  1  0  0  0  0
 23 26  1  0  0  0  0
M  END
> <VM2 Rank>
111

> <Conf_Id>
755

> <Probability>
0.04

> <Sum Probability>
98.93

> <Delta G>
3.059

> <G>
78.525

> <E>
46.150

> <-TS>
32.375

> <U+W>
24.688

> <U>
74.427

> <W>
-49.738

> <W(PB)>
-51.983

> <W(SA)>
2.244

> <Valence>
3.638

> <Coulomb>
70.620

> <VdW>
0.169

> <VdW6>
-7.761

> <VdW12>
7.931

> <Bond>
0.224

> <Angle>
1.176

> <Pdih>
2.238

> <Idih>
0.000

> <Tether>
0.000

$$$$
VeraChem MOL file


 26 25  0  0  0  0  0  0  0  0999 V2000     
   20.0543   19.6986   26.0024 N   0  3  0  0  0  0  0  0  0  0  0  0
   20.3322   20.6198   26.3766 H   0  0  0  0  0  0  0  0  0  0  0  0
   20.4381   19.0129   26.6709 H   0  0  0  0  0  0  0  0  0  0  0  0
   20.6740   19.4985   24.6299 C   0  0  0  0  0  0  0  0  0  0  0  0
   21.7328   19.7571   24.7112 H   0  0  0  0  0  0  0  0  0  0  0  0
   20.2061   20.2106   23.9484 H   0  0  0  0  0  0  0  0  0  0  0  0
   20.5531   18.0609   24.0782 C   0  0  0  0  0  0  0  0  0  0  0  0
   21.0248   17.3798   24.7988 H   0  0  0  0  0  0  0  0  0  0  0  0
   19.5005   17.7577   24.0093 H   0  0  0  0  0  0  0  0  0  0  0  0
   21.2438   17.8809   22.7028 C   0  0  0  0  0  0  0  0  0  0  0  0
   21.5599   16.8323   22.6131 H   0  0  0  0  0  0  0  0  0  0  0  0
   22.1682   18.4739   22.6652 H   0  0  0  0  0  0  0  0  0  0  0  0
   20.3512   18.2068   21.4768 C   0  0  0  0  0  0  0  0  0  0  0  0
   20.9257   17.9851   20.5668 H   0  0  0  0  0  0  0  0  0  0  0  0
   19.4869   17.5285   21.4635 H   0  0  0  0  0  0  0  0  0  0  0  0
   19.8546   19.6698   21.4122 C   0  0  0  0  0  0  0  0  0  0  0  0
   20.7020   20.3582   21.5371 H   0  0  0  0  0  0  0  0  0  0  0  0
   19.1533   19.8633   22.2344 H   0  0  0  0  0  0  0  0  0  0  0  0
   19.1430   19.9713   20.0759 C   0  0  0  0  0  0  0  0  0  0  0  0
   18.7880   21.0097   20.0514 H   0  0  0  0  0  0  0  0  0  0  0  0
   18.2744   19.3150   19.9344 H   0  0  0  0  0  0  0  0  0  0  0  0
   19.8219   19.8281   19.2251 H   0  0  0  0  0  0  0  0  0  0  0  0
   18.5341   19.6032   25.9389 C   0  0  0  0  0  0  0  0  0  0  0  0
   18.1230   19.7875   26.9340 H   0  0  0  0  0  0  0  0  0  0  0  0
   18.1565   20.3524   25.2397 H   0  0  0  0  0  0  0  0  0  0  0  0
   18.2476   18.6047   25.6030 H   0  0  0  0  0  0  0  0  0  0  0  0
  1  2  1  0  0  0  0
  1  3  1  0  0  0  0
  1  4  1  0  0  0  0
  4  5  1  0  0  0  0
  4  6  1  0  0  0  0
  4  7  1  0  0  0  0
  7  8  1  0  0  0  0
  7  9  1  0  0  0  0
  7 10  1  0  0  0  0
 10 11  1  0  0  0  0
 10 12  1  0  0  0  0
 10 13  1  0  0  0  0
 13 14  1  0  0  0  0
 13 15  1  0  0  0  0
 13 16  1  0  0  0  0
 16 17  1  0  0  0  0
 16 18  1  0  0  0  0
 16 19  1  0  0  0  0
 19 20  1  0  0  0  0
 19 21  1  0  0  0  0
 19 22  1  0  0  0  0
  1 23  1  0  0  0  0
 23 24  1  0  0  0  0
 23 25  1  0  0  0  0
 23 26  1  0  0  0  0
M  END
> <VM2 Rank>
112

> <Conf_Id>
1620

> <Probability>
0.04

> <Sum Probability>
98.97

> <Delta G>
3.073

> <G>
78.539

> <E>
45.891

> <-TS>
32.648

> <U+W>
24.429

> <U>
74.229

> <W>
-49.800

> <W(PB)>
-52.057

> <W(SA)>
2.257

> <Valence>
4.377

> <Coulomb>
69.549

> <VdW>
0.303

> <VdW6>
-7.808

> <VdW12>
8.110

> <Bond>
0.233

> <Angle>
1.219

> <Pdih>
2.926

> <Idih>
0.000

> <Tether>
0.000

$$$$
VeraChem MOL file


 26 25  0  0  0  0  0  0  0  0999 V2000     
   19.5025   18.5157   25.2775 N   0  3  0  0  0  0  0  0  0  0  0  0
   19.9328   17.6154   25.5403 H   0  0  0  0  0  0  0  0  0  0  0  0
   19.0803   18.3596   24.3511 H   0  0  0  0  0  0  0  0  0  0  0  0
   20.5648   19.5951   25.1934 C   0  0  0  0  0  0  0  0  0  0  0  0
   21.0098   19.6796   26.1881 H   0  0  0  0  0  0  0  0  0  0  0  0
   20.0768   20.5443   24.9582 H   0  0  0  0  0  0  0  0  0  0  0  0
   21.6803   19.3117   24.1653 C   0  0  0  0  0  0  0  0  0  0  0  0
   22.5652   19.8894   24.4637 H   0  0  0  0  0  0  0  0  0  0  0  0
   21.9791   18.2562   24.2155 H   0  0  0  0  0  0  0  0  0  0  0  0
   21.3255   19.7044   22.7081 C   0  0  0  0  0  0  0  0  0  0  0  0
   22.2176   19.5491   22.0856 H   0  0  0  0  0  0  0  0  0  0  0  0
   21.1053   20.7801   22.6634 H   0  0  0  0  0  0  0  0  0  0  0  0
   20.1443   18.9115   22.0994 C   0  0  0  0  0  0  0  0  0  0  0  0
   20.3090   17.8344   22.2410 H   0  0  0  0  0  0  0  0  0  0  0  0
   19.2136   19.1737   22.6181 H   0  0  0  0  0  0  0  0  0  0  0  0
   19.9701   19.2089   20.5934 C   0  0  0  0  0  0  0  0  0  0  0  0
   20.8904   18.9456   20.0532 H   0  0  0  0  0  0  0  0  0  0  0  0
   19.8124   20.2863   20.4436 H   0  0  0  0  0  0  0  0  0  0  0  0
   18.7827   18.4287   19.9899 C   0  0  0  0  0  0  0  0  0  0  0  0
   18.9274   17.3455   20.0950 H   0  0  0  0  0  0  0  0  0  0  0  0
   18.6761   18.6516   18.9203 H   0  0  0  0  0  0  0  0  0  0  0  0
   17.8404   18.6975   20.4849 H   0  0  0  0  0  0  0  0  0  0  0  0
   18.4379   18.9140   26.2900 C   0  0  0  0  0  0  0  0  0  0  0  0
   17.9756   19.8520   25.9750 H   0  0  0  0  0  0  0  0  0  0  0  0
   17.6807   18.1284   26.3418 H   0  0  0  0  0  0  0  0  0  0  0  0
   18.9041   19.0418   27.2694 H   0  0  0  0  0  0  0  0  0  0  0  0
  1  2  1  0  0  0  0
  1  3  1  0  0  0  0
  1  4  1  0  0  0  0
  4  5  1  0  0  0  0
  4  6  1  0  0  0  0
  4  7  1  0  0  0  0
  7  8  1  0  0  0  0
  7  9  1  0  0  0  0
  7 10  1  0  0  0  0
 10 11  1  0  0  0  0
 10 12  1  0  0  0  0
 10 13  1  0  0  0  0
 13 14  1  0  0  0  0
 13 15  1  0  0  0  0
 13 16  1  0  0  0  0
 16 17  1  0  0  0  0
 16 18  1  0  0  0  0
 16 19  1  0  0  0  0
 19 20  1  0  0  0  0
 19 21  1  0  0  0  0
 19 22  1  0  0  0  0
  1 23  1  0  0  0  0
 23 24  1  0  0  0  0
 23 25  1  0  0  0  0
 23 26  1  0  0  0  0
M  END
> <VM2 Rank>
113

> <Conf_Id>
543

> <Probability>
0.04

> <Sum Probability>
99.01

> <Delta G>
3.117

> <G>
78.583

> <E>
46.237

> <-TS>
32.346

> <U+W>
24.775

> <U>
73.982

> <W>
-49.207

> <W(PB)>
-51.488

> <W(SA)>
2.280

> <Valence>
3.347

> <Coulomb>
70.654

> <VdW>
-0.018

> <VdW6>
-6.980

> <VdW12>
6.962

> <Bond>
0.176

> <Angle>
0.935

> <Pdih>
2.235

> <Idih>
0.000

> <Tether>
0.000

$$$$
VeraChem MOL file


 26 25  0  0  0  0  0  0  0  0999 V2000     
   19.6194   19.8467   25.9144 N   0  3  0  0  0  0  0  0  0  0  0  0
   19.0443   20.6940   26.0457 H   0  0  0  0  0  0  0  0  0  0  0  0
   20.4506   19.9947   26.5074 H   0  0  0  0  0  0  0  0  0  0  0  0
   20.0287   19.7296   24.4559 C   0  0  0  0  0  0  0  0  0  0  0  0
   20.4321   20.6987   24.1516 H   0  0  0  0  0  0  0  0  0  0  0  0
   19.1256   19.5350   23.8733 H   0  0  0  0  0  0  0  0  0  0  0  0
   21.0790   18.6366   24.1730 C   0  0  0  0  0  0  0  0  0  0  0  0
   21.9234   18.7718   24.8618 H   0  0  0  0  0  0  0  0  0  0  0  0
   20.6545   17.6486   24.3932 H   0  0  0  0  0  0  0  0  0  0  0  0
   21.6204   18.6507   22.7210 C   0  0  0  0  0  0  0  0  0  0  0  0
   22.4145   17.8936   22.6579 H   0  0  0  0  0  0  0  0  0  0  0  0
   22.1091   19.6113   22.5073 H   0  0  0  0  0  0  0  0  0  0  0  0
   20.5637   18.3301   21.6313 C   0  0  0  0  0  0  0  0  0  0  0  0
   21.0761   17.8429   20.7900 H   0  0  0  0  0  0  0  0  0  0  0  0
   19.8410   17.5950   22.0116 H   0  0  0  0  0  0  0  0  0  0  0  0
   19.8265   19.5770   21.0847 C   0  0  0  0  0  0  0  0  0  0  0  0
   20.5588   20.2946   20.6891 H   0  0  0  0  0  0  0  0  0  0  0  0
   19.2844   20.0927   21.8857 H   0  0  0  0  0  0  0  0  0  0  0  0
   18.8289   19.2024   19.9679 C   0  0  0  0  0  0  0  0  0  0  0  0
   18.3185   20.0968   19.5878 H   0  0  0  0  0  0  0  0  0  0  0  0
   18.0625   18.5097   20.3394 H   0  0  0  0  0  0  0  0  0  0  0  0
   19.3419   18.7237   19.1235 H   0  0  0  0  0  0  0  0  0  0  0  0
   18.8413   18.6170   26.3687 C   0  0  0  0  0  0  0  0  0  0  0  0
   18.5351   18.7522   27.4085 H   0  0  0  0  0  0  0  0  0  0  0  0
   17.9584   18.4974   25.7370 H   0  0  0  0  0  0  0  0  0  0  0  0
   19.4790   17.7346   26.2858 H   0  0  0  0  0  0  0  0  0  0  0  0
  1  2  1  0  0  0  0
  1  3  1  0  0  0  0
  1  4  1  0  0  0  0
  4  5  1  0  0  0  0
  4  6  1  0  0  0  0
  4  7  1  0  0  0  0
  7  8  1  0  0  0  0
  7  9  1  0  0  0  0
  7 10  1  0  0  0  0
 10 11  1  0  0  0  0
 10 12  1  0  0  0  0
 10 13  1  0  0  0  0
 13 14  1  0  0  0  0
 13 15  1  0  0  0  0
 13 16  1  0  0  0  0
 16 17  1  0  0  0  0
 16 18  1  0  0  0  0
 16 19  1  0  0  0  0
 19 20  1  0  0  0  0
 19 21  1  0  0  0  0
 19 22  1  0  0  0  0
  1 23  1  0  0  0  0
 23 24  1  0  0  0  0
 23 25  1  0  0  0  0
 23 26  1  0  0  0  0
M  END
> <VM2 Rank>
114

> <Conf_Id>
569

> <Probability>
0.04

> <Sum Probability>
99.04

> <Delta G>
3.122

> <G>
78.588

> <E>
46.171

> <-TS>
32.417

> <U+W>
24.709

> <U>
74.305

> <W>
-49.596

> <W(PB)>
-51.865

> <W(SA)>
2.269

> <Valence>
4.513

> <Coulomb>
69.361

> <VdW>
0.431

> <VdW6>
-7.509

> <VdW12>
7.941

> <Bond>
0.240

> <Angle>
1.205

> <Pdih>
3.068

> <Idih>
0.000

> <Tether>
0.000

$$$$
VeraChem MOL file


 26 25  0  0  0  0  0  0  0  0999 V2000     
   20.1324   19.8993   25.9326 N   0  3  0  0  0  0  0  0  0  0  0  0
   19.2490   19.8720   26.4648 H   0  0  0  0  0  0  0  0  0  0  0  0
   20.5137   20.8444   26.0978 H   0  0  0  0  0  0  0  0  0  0  0  0
   19.8587   19.7121   24.4499 C   0  0  0  0  0  0  0  0  0  0  0  0
   20.8211   19.7084   23.9336 H   0  0  0  0  0  0  0  0  0  0  0  0
   19.2900   20.5818   24.1111 H   0  0  0  0  0  0  0  0  0  0  0  0
   19.0736   18.4313   24.1019 C   0  0  0  0  0  0  0  0  0  0  0  0
   19.6729   17.5481   24.3582 H   0  0  0  0  0  0  0  0  0  0  0  0
   18.1734   18.3878   24.7291 H   0  0  0  0  0  0  0  0  0  0  0  0
   18.6434   18.3461   22.6156 C   0  0  0  0  0  0  0  0  0  0  0  0
   17.9867   19.1896   22.3614 H   0  0  0  0  0  0  0  0  0  0  0  0
   18.0252   17.4447   22.5025 H   0  0  0  0  0  0  0  0  0  0  0  0
   19.8165   18.2536   21.6047 C   0  0  0  0  0  0  0  0  0  0  0  0
   20.6445   17.6769   22.0395 H   0  0  0  0  0  0  0  0  0  0  0  0
   19.4732   17.6793   20.7330 H   0  0  0  0  0  0  0  0  0  0  0  0
   20.3231   19.6278   21.1024 C   0  0  0  0  0  0  0  0  0  0  0  0
   20.6928   20.2363   21.9357 H   0  0  0  0  0  0  0  0  0  0  0  0
   19.4904   20.1858   20.6518 H   0  0  0  0  0  0  0  0  0  0  0  0
   21.4511   19.4706   20.0604 C   0  0  0  0  0  0  0  0  0  0  0  0
   22.3137   18.9441   20.4891 H   0  0  0  0  0  0  0  0  0  0  0  0
   21.7957   20.4525   19.7109 H   0  0  0  0  0  0  0  0  0  0  0  0
   21.1054   18.9046   19.1856 H   0  0  0  0  0  0  0  0  0  0  0  0
   21.1091   18.8491   26.4494 C   0  0  0  0  0  0  0  0  0  0  0  0
   22.0401   18.9148   25.8821 H   0  0  0  0  0  0  0  0  0  0  0  0
   21.3080   19.0360   27.5071 H   0  0  0  0  0  0  0  0  0  0  0  0
   20.6704   17.8566   26.3284 H   0  0  0  0  0  0  0  0  0  0  0  0
  1  2  1  0  0  0  0
  1  3  1  0  0  0  0
  1  4  1  0  0  0  0
  4  5  1  0  0  0  0
  4  6  1  0  0  0  0
  4  7  1  0  0  0  0
  7  8  1  0  0  0  0
  7  9  1  0  0  0  0
  7 10  1  0  0  0  0
 10 11  1  0  0  0  0
 10 12  1  0  0  0  0
 10 13  1  0  0  0  0
 13 14  1  0  0  0  0
 13 15  1  0  0  0  0
 13 16  1  0  0  0  0
 16 17  1  0  0  0  0
 16 18  1  0  0  0  0
 16 19  1  0  0  0  0
 19 20  1  0  0  0  0
 19 21  1  0  0  0  0
 19 22  1  0  0  0  0
  1 23  1  0  0  0  0
 23 24  1  0  0  0  0
 23 25  1  0  0  0  0
 23 26  1  0  0  0  0
M  END
> <VM2 Rank>
115

> <Conf_Id>
1226

> <Probability>
0.04

> <Sum Probability>
99.08

> <Delta G>
3.134

> <G>
78.600

> <E>
46.184

> <-TS>
32.416

> <U+W>
24.722

> <U>
74.305

> <W>
-49.583

> <W(PB)>
-51.861

> <W(SA)>
2.278

> <Valence>
4.513

> <Coulomb>
69.361

> <VdW>
0.431

> <VdW6>
-7.509

> <VdW12>
7.940

> <Bond>
0.240

> <Angle>
1.206

> <Pdih>
3.067

> <Idih>
0.000

> <Tether>
0.000

$$$$
VeraChem MOL file


 26 25  0  0  0  0  0  0  0  0999 V2000     
   19.7325   19.6664   25.9909 N   0  3  0  0  0  0  0  0  0  0  0  0
   19.4468   18.9134   26.6357 H   0  0  0  0  0  0  0  0  0  0  0  0
   19.2508   20.5111   26.3378 H   0  0  0  0  0  0  0  0  0  0  0  0
   19.2636   19.3563   24.5796 C   0  0  0  0  0  0  0  0  0  0  0  0
   19.6269   20.1521   23.9278 H   0  0  0  0  0  0  0  0  0  0  0  0
   18.1714   19.3978   24.5842 H   0  0  0  0  0  0  0  0  0  0  0  0
   19.7076   17.9756   24.0483 C   0  0  0  0  0  0  0  0  0  0  0  0
   20.8017   17.8891   24.0557 H   0  0  0  0  0  0  0  0  0  0  0  0
   19.3319   17.2091   24.7390 H   0  0  0  0  0  0  0  0  0  0  0  0
   19.1650   17.6708   22.6291 C   0  0  0  0  0  0  0  0  0  0  0  0
   18.1457   18.0671   22.5225 H   0  0  0  0  0  0  0  0  0  0  0  0
   19.0720   16.5808   22.5251 H   0  0  0  0  0  0  0  0  0  0  0  0
   20.0582   18.1771   21.4665 C   0  0  0  0  0  0  0  0  0  0  0  0
   21.0395   17.6855   21.5187 H   0  0  0  0  0  0  0  0  0  0  0  0
   19.6049   17.8512   20.5201 H   0  0  0  0  0  0  0  0  0  0  0  0
   20.2554   19.7103   21.4261 C   0  0  0  0  0  0  0  0  0  0  0  0
   20.8444   20.0345   22.2939 H   0  0  0  0  0  0  0  0  0  0  0  0
   19.2807   20.2143   21.4865 H   0  0  0  0  0  0  0  0  0  0  0  0
   20.9840   20.1572   20.1407 C   0  0  0  0  0  0  0  0  0  0  0  0
   21.9741   19.6890   20.0652 H   0  0  0  0  0  0  0  0  0  0  0  0
   21.1248   21.2459   20.1336 H   0  0  0  0  0  0  0  0  0  0  0  0
   20.4088   19.8870   19.2456 H   0  0  0  0  0  0  0  0  0  0  0  0
   21.2418   19.8764   26.0357 C   0  0  0  0  0  0  0  0  0  0  0  0
   21.5366   20.1319   27.0559 H   0  0  0  0  0  0  0  0  0  0  0  0
   21.7445   18.9573   25.7281 H   0  0  0  0  0  0  0  0  0  0  0  0
   21.5109   20.6906   25.3594 H   0  0  0  0  0  0  0  0  0  0  0  0
  1  2  1  0  0  0  0
  1  3  1  0  0  0  0
  1  4  1  0  0  0  0
  4  5  1  0  0  0  0
  4  6  1  0  0  0  0
  4  7  1  0  0  0  0
  7  8  1  0  0  0  0
  7  9  1  0  0  0  0
  7 10  1  0  0  0  0
 10 11  1  0  0  0  0
 10 12  1  0  0  0  0
 10 13  1  0  0  0  0
 13 14  1  0  0  0  0
 13 15  1  0  0  0  0
 13 16  1  0  0  0  0
 16 17  1  0  0  0  0
 16 18  1  0  0  0  0
 16 19  1  0  0  0  0
 19 20  1  0  0  0  0
 19 21  1  0  0  0  0
 19 22  1  0  0  0  0
  1 23  1  0  0  0  0
 23 24  1  0  0  0  0
 23 25  1  0  0  0  0
 23 26  1  0  0  0  0
M  END
> <VM2 Rank>
116

> <Conf_Id>
563

> <Probability>
0.04

> <Sum Probability>
99.12

> <Delta G>
3.142

> <G>
78.608

> <E>
45.960

> <-TS>
32.648

> <U+W>
24.498

> <U>
74.229

> <W>
-49.731

> <W(PB)>
-51.984

> <W(SA)>
2.253

> <Valence>
4.376

> <Coulomb>
69.549

> <VdW>
0.303

> <VdW6>
-7.807

> <VdW12>
8.111

> <Bond>
0.233

> <Angle>
1.219

> <Pdih>
2.924

> <Idih>
0.000

> <Tether>
0.000

$$$$
VeraChem MOL file


 26 25  0  0  0  0  0  0  0  0999 V2000     
   20.5605   18.6240   25.3150 N   0  3  0  0  0  0  0  0  0  0  0  0
   21.0693   18.5632   24.4215 H   0  0  0  0  0  0  0  0  0  0  0  0
   20.3040   17.6534   25.5536 H   0  0  0  0  0  0  0  0  0  0  0  0
   19.3103   19.4666   25.1490 C   0  0  0  0  0  0  0  0  0  0  0  0
   19.6113   20.4966   24.9418 H   0  0  0  0  0  0  0  0  0  0  0  0
   18.7889   19.4521   26.1094 H   0  0  0  0  0  0  0  0  0  0  0  0
   18.3501   18.9706   24.0473 C   0  0  0  0  0  0  0  0  0  0  0  0
   18.2683   17.8762   24.0840 H   0  0  0  0  0  0  0  0  0  0  0  0
   17.3478   19.3550   24.2789 H   0  0  0  0  0  0  0  0  0  0  0  0
   18.7191   19.4375   22.6157 C   0  0  0  0  0  0  0  0  0  0  0  0
   18.7195   20.5358   22.5789 H   0  0  0  0  0  0  0  0  0  0  0  0
   17.9227   19.1093   21.9334 H   0  0  0  0  0  0  0  0  0  0  0  0
   20.0761   18.9046   22.0970 C   0  0  0  0  0  0  0  0  0  0  0  0
   20.8957   19.3461   22.6776 H   0  0  0  0  0  0  0  0  0  0  0  0
   20.1234   17.8154   22.2345 H   0  0  0  0  0  0  0  0  0  0  0  0
   20.2914   19.2418   20.6048 C   0  0  0  0  0  0  0  0  0  0  0  0
   20.2378   20.3298   20.4586 H   0  0  0  0  0  0  0  0  0  0  0  0
   19.4837   18.8013   20.0034 H   0  0  0  0  0  0  0  0  0  0  0  0
   21.6516   18.7225   20.0916 C   0  0  0  0  0  0  0  0  0  0  0  0
   21.7223   17.6318   20.1942 H   0  0  0  0  0  0  0  0  0  0  0  0
   22.4828   19.1731   20.6494 H   0  0  0  0  0  0  0  0  0  0  0  0
   21.7854   18.9700   19.0305 H   0  0  0  0  0  0  0  0  0  0  0  0
   21.4490   19.2224   26.3966 C   0  0  0  0  0  0  0  0  0  0  0  0
   22.3440   18.6060   26.5068 H   0  0  0  0  0  0  0  0  0  0  0  0
   21.7327   20.2368   26.1078 H   0  0  0  0  0  0  0  0  0  0  0  0
   20.8992   19.2463   27.3400 H   0  0  0  0  0  0  0  0  0  0  0  0
  1  2  1  0  0  0  0
  1  3  1  0  0  0  0
  1  4  1  0  0  0  0
  4  5  1  0  0  0  0
  4  6  1  0  0  0  0
  4  7  1  0  0  0  0
  7  8  1  0  0  0  0
  7  9  1  0  0  0  0
  7 10  1  0  0  0  0
 10 11  1  0  0  0  0
 10 12  1  0  0  0  0
 10 13  1  0  0  0  0
 13 14  1  0  0  0  0
 13 15  1  0  0  0  0
 13 16  1  0  0  0  0
 16 17  1  0  0  0  0
 16 18  1  0  0  0  0
 16 19  1  0  0  0  0
 19 20  1  0  0  0  0
 19 21  1  0  0  0  0
 19 22  1  0  0  0  0
  1 23  1  0  0  0  0
 23 24  1  0  0  0  0
 23 25  1  0  0  0  0
 23 26  1  0  0  0  0
M  END
> <VM2 Rank>
117

> <Conf_Id>
952

> <Probability>
0.04

> <Sum Probability>
99.15

> <Delta G>
3.149

> <G>
78.615

> <E>
46.268

> <-TS>
32.346

> <U+W>
24.807

> <U>
73.983

> <W>
-49.176

> <W(PB)>
-51.452

> <W(SA)>
2.276

> <Valence>
3.347

> <Coulomb>
70.654

> <VdW>
-0.018

> <VdW6>
-6.981

> <VdW12>
6.962

> <Bond>
0.176

> <Angle>
0.935

> <Pdih>
2.236

> <Idih>
0.000

> <Tether>
0.000

$$$$
VeraChem MOL file


 26 25  0  0  0  0  0  0  0  0999 V2000     
   20.3484   19.3331   25.7617 N   0  3  0  0  0  0  0  0  0  0  0  0
   21.1619   18.7081   25.8660 H   0  0  0  0  0  0  0  0  0  0  0  0
   20.1025   19.6112   26.7248 H   0  0  0  0  0  0  0  0  0  0  0  0
   19.1798   18.5797   25.1448 C   0  0  0  0  0  0  0  0  0  0  0  0
   18.5005   19.3061   24.6929 H   0  0  0  0  0  0  0  0  0  0  0  0
   18.6485   18.1001   25.9709 H   0  0  0  0  0  0  0  0  0  0  0  0
   19.5600   17.4808   24.1249 C   0  0  0  0  0  0  0  0  0  0  0  0
   20.2336   16.7618   24.6094 H   0  0  0  0  0  0  0  0  0  0  0  0
   18.6522   16.9182   23.8702 H   0  0  0  0  0  0  0  0  0  0  0  0
   20.2139   17.9911   22.8173 C   0  0  0  0  0  0  0  0  0  0  0  0
   20.4494   17.1250   22.1837 H   0  0  0  0  0  0  0  0  0  0  0  0
   21.1757   18.4628   23.0503 H   0  0  0  0  0  0  0  0  0  0  0  0
   19.3042   18.9627   22.0230 C   0  0  0  0  0  0  0  0  0  0  0  0
   18.3401   18.4718   21.8315 H   0  0  0  0  0  0  0  0  0  0  0  0
   19.0807   19.8544   22.6228 H   0  0  0  0  0  0  0  0  0  0  0  0
   19.9110   19.4024   20.6689 C   0  0  0  0  0  0  0  0  0  0  0  0
   19.1579   19.9817   20.1166 H   0  0  0  0  0  0  0  0  0  0  0  0
   20.1301   18.5184   20.0538 H   0  0  0  0  0  0  0  0  0  0  0  0
   21.1870   20.2620   20.8199 C   0  0  0  0  0  0  0  0  0  0  0  0
   20.9996   21.1401   21.4514 H   0  0  0  0  0  0  0  0  0  0  0  0
   21.5259   20.6210   19.8395 H   0  0  0  0  0  0  0  0  0  0  0  0
   22.0107   19.6886   21.2627 H   0  0  0  0  0  0  0  0  0  0  0  0
   20.7036   20.5782   24.9565 C   0  0  0  0  0  0  0  0  0  0  0  0
   19.8309   21.2329   24.9077 H   0  0  0  0  0  0  0  0  0  0  0  0
   21.5264   21.0995   25.4509 H   0  0  0  0  0  0  0  0  0  0  0  0
   21.0052   20.2914   23.9484 H   0  0  0  0  0  0  0  0  0  0  0  0
  1  2  1  0  0  0  0
  1  3  1  0  0  0  0
  1  4  1  0  0  0  0
  4  5  1  0  0  0  0
  4  6  1  0  0  0  0
  4  7  1  0  0  0  0
  7  8  1  0  0  0  0
  7  9  1  0  0  0  0
  7 10  1  0  0  0  0
 10 11  1  0  0  0  0
 10 12  1  0  0  0  0
 10 13  1  0  0  0  0
 13 14  1  0  0  0  0
 13 15  1  0  0  0  0
 13 16  1  0  0  0  0
 16 17  1  0  0  0  0
 16 18  1  0  0  0  0
 16 19  1  0  0  0  0
 19 20  1  0  0  0  0
 19 21  1  0  0  0  0
 19 22  1  0  0  0  0
  1 23  1  0  0  0  0
 23 24  1  0  0  0  0
 23 25  1  0  0  0  0
 23 26  1  0  0  0  0
M  END
> <VM2 Rank>
118

> <Conf_Id>
795

> <Probability>
0.03

> <Sum Probability>
99.19

> <Delta G>
3.157

> <G>
78.623

> <E>
45.496

> <-TS>
33.127

> <U+W>
24.034

> <U>
74.178

> <W>
-50.144

> <W(PB)>
-52.281

> <W(SA)>
2.138

> <Valence>
4.525

> <Coulomb>
69.761

> <VdW>
-0.108

> <VdW6>
-9.142

> <VdW12>
9.034

> <Bond>
0.254

> <Angle>
1.399

> <Pdih>
2.871

> <Idih>
0.000

> <Tether>
0.000

$$$$
VeraChem MOL file


 26 25  0  0  0  0  0  0  0  0999 V2000     
   19.7124   18.8632   25.9040 N   0  3  0  0  0  0  0  0  0  0  0  0
   20.5947   19.1018   26.3814 H   0  0  0  0  0  0  0  0  0  0  0  0
   19.1775   18.3146   26.5956 H   0  0  0  0  0  0  0  0  0  0  0  0
   19.9894   17.9956   24.6855 C   0  0  0  0  0  0  0  0  0  0  0  0
   19.1248   18.0451   24.0193 H   0  0  0  0  0  0  0  0  0  0  0  0
   20.0669   16.9682   25.0505 H   0  0  0  0  0  0  0  0  0  0  0  0
   21.2904   18.3217   23.9160 C   0  0  0  0  0  0  0  0  0  0  0  0
   22.1331   18.3159   24.6196 H   0  0  0  0  0  0  0  0  0  0  0  0
   21.4898   17.5027   23.2134 H   0  0  0  0  0  0  0  0  0  0  0  0
   21.2841   19.6641   23.1394 C   0  0  0  0  0  0  0  0  0  0  0  0
   22.2351   19.7609   22.5977 H   0  0  0  0  0  0  0  0  0  0  0  0
   21.2702   20.4971   23.8536 H   0  0  0  0  0  0  0  0  0  0  0  0
   20.1151   19.8321   22.1341 C   0  0  0  0  0  0  0  0  0  0  0  0
   19.1544   19.8177   22.6648 H   0  0  0  0  0  0  0  0  0  0  0  0
   20.1928   20.8278   21.6761 H   0  0  0  0  0  0  0  0  0  0  0  0
   20.1041   18.7641   21.0151 C   0  0  0  0  0  0  0  0  0  0  0  0
   19.9556   17.7652   21.4464 H   0  0  0  0  0  0  0  0  0  0  0  0
   21.0779   18.7499   20.5059 H   0  0  0  0  0  0  0  0  0  0  0  0
   18.9898   19.0337   19.9815 C   0  0  0  0  0  0  0  0  0  0  0  0
   18.9948   18.2660   19.1969 H   0  0  0  0  0  0  0  0  0  0  0  0
   19.1269   20.0097   19.4978 H   0  0  0  0  0  0  0  0  0  0  0  0
   18.0001   19.0235   20.4564 H   0  0  0  0  0  0  0  0  0  0  0  0
   18.9227   20.1155   25.5415 C   0  0  0  0  0  0  0  0  0  0  0  0
   19.5042   20.7307   24.8542 H   0  0  0  0  0  0  0  0  0  0  0  0
   17.9829   19.8213   25.0694 H   0  0  0  0  0  0  0  0  0  0  0  0
   18.7148   20.6813   26.4523 H   0  0  0  0  0  0  0  0  0  0  0  0
  1  2  1  0  0  0  0
  1  3  1  0  0  0  0
  1  4  1  0  0  0  0
  4  5  1  0  0  0  0
  4  6  1  0  0  0  0
  4  7  1  0  0  0  0
  7  8  1  0  0  0  0
  7  9  1  0  0  0  0
  7 10  1  0  0  0  0
 10 11  1  0  0  0  0
 10 12  1  0  0  0  0
 10 13  1  0  0  0  0
 13 14  1  0  0  0  0
 13 15  1  0  0  0  0
 13 16  1  0  0  0  0
 16 17  1  0  0  0  0
 16 18  1  0  0  0  0
 16 19  1  0  0  0  0
 19 20  1  0  0  0  0
 19 21  1  0  0  0  0
 19 22  1  0  0  0  0
  1 23  1  0  0  0  0
 23 24  1  0  0  0  0
 23 25  1  0  0  0  0
 23 26  1  0  0  0  0
M  END
> <VM2 Rank>
119

> <Conf_Id>
261

> <Probability>
0.03

> <Sum Probability>
99.22

> <Delta G>
3.184

> <G>
78.650

> <E>
45.555

> <-TS>
33.095

> <U+W>
24.093

> <U>
74.107

> <W>
-50.014

> <W(PB)>
-52.190

> <W(SA)>
2.176

> <Valence>
4.500

> <Coulomb>
69.634

> <VdW>
-0.027

> <VdW6>
-8.973

> <VdW12>
8.946

> <Bond>
0.259

> <Angle>
1.561

> <Pdih>
2.679

> <Idih>
0.000

> <Tether>
0.000

$$$$
VeraChem MOL file


 26 25  0  0  0  0  0  0  0  0999 V2000     
   19.5356   19.2514   25.7330 N   0  3  0  0  0  0  0  0  0  0  0  0
   19.6533   19.5661   26.7090 H   0  0  0  0  0  0  0  0  0  0  0  0
   18.8573   18.4766   25.7846 H   0  0  0  0  0  0  0  0  0  0  0  0
   20.8708   18.7496   25.2047 C   0  0  0  0  0  0  0  0  0  0  0  0
   21.4277   18.3792   26.0693 H   0  0  0  0  0  0  0  0  0  0  0  0
   21.4222   19.5996   24.7964 H   0  0  0  0  0  0  0  0  0  0  0  0
   20.7888   17.6043   24.1684 C   0  0  0  0  0  0  0  0  0  0  0  0
   21.8059   17.2350   23.9819 H   0  0  0  0  0  0  0  0  0  0  0  0
   20.2392   16.7624   24.6096 H   0  0  0  0  0  0  0  0  0  0  0  0
   20.1400   17.9837   22.8146 C   0  0  0  0  0  0  0  0  0  0  0  0
   19.0897   18.2532   22.9763 H   0  0  0  0  0  0  0  0  0  0  0  0
   20.1263   17.0926   22.1722 H   0  0  0  0  0  0  0  0  0  0  0  0
   20.8918   19.1223   22.0793 C   0  0  0  0  0  0  0  0  0  0  0  0
   20.8910   20.0364   22.6870 H   0  0  0  0  0  0  0  0  0  0  0  0
   21.9453   18.8342   21.9594 H   0  0  0  0  0  0  0  0  0  0  0  0
   20.3063   19.4422   20.6829 C   0  0  0  0  0  0  0  0  0  0  0  0
   20.3112   18.5367   20.0602 H   0  0  0  0  0  0  0  0  0  0  0  0
   20.9660   20.1637   20.1808 H   0  0  0  0  0  0  0  0  0  0  0  0
   18.8774   20.0297   20.7379 C   0  0  0  0  0  0  0  0  0  0  0  0
   18.1552   19.3008   21.1256 H   0  0  0  0  0  0  0  0  0  0  0  0
   18.5436   20.3212   19.7337 H   0  0  0  0  0  0  0  0  0  0  0  0
   18.8416   20.9229   21.3749 H   0  0  0  0  0  0  0  0  0  0  0  0
   18.9973   20.4067   24.8961 C   0  0  0  0  0  0  0  0  0  0  0  0
   19.7237   21.2222   24.9039 H   0  0  0  0  0  0  0  0  0  0  0  0
   18.8300   20.0728   23.8714 H   0  0  0  0  0  0  0  0  0  0  0  0
   18.0548   20.7506   25.3280 H   0  0  0  0  0  0  0  0  0  0  0  0
  1  2  1  0  0  0  0
  1  3  1  0  0  0  0
  1  4  1  0  0  0  0
  4  5  1  0  0  0  0
  4  6  1  0  0  0  0
  4  7  1  0  0  0  0
  7  8  1  0  0  0  0
  7  9  1  0  0  0  0
  7 10  1  0  0  0  0
 10 11  1  0  0  0  0
 10 12  1  0  0  0  0
 10 13  1  0  0  0  0
 13 14  1  0  0  0  0
 13 15  1  0  0  0  0
 13 16  1  0  0  0  0
 16 17  1  0  0  0  0
 16 18  1  0  0  0  0
 16 19  1  0  0  0  0
 19 20  1  0  0  0  0
 19 21  1  0  0  0  0
 19 22  1  0  0  0  0
  1 23  1  0  0  0  0
 23 24  1  0  0  0  0
 23 25  1  0  0  0  0
 23 26  1  0  0  0  0
M  END
> <VM2 Rank>
120

> <Conf_Id>
1591

> <Probability>
0.03

> <Sum Probability>
99.25

> <Delta G>
3.229

> <G>
78.695

> <E>
45.567

> <-TS>
33.127

> <U+W>
24.106

> <U>
74.177

> <W>
-50.072

> <W(PB)>
-52.225

> <W(SA)>
2.153

> <Valence>
4.524

> <Coulomb>
69.761

> <VdW>
-0.108

> <VdW6>
-9.142

> <VdW12>
9.034

> <Bond>
0.254

> <Angle>
1.400

> <Pdih>
2.871

> <Idih>
0.000

> <Tether>
0.000

$$$$
VeraChem MOL file


 26 25  0  0  0  0  0  0  0  0999 V2000     
   19.1728   18.5007   25.7692 N   0  3  0  0  0  0  0  0  0  0  0  0
   19.6082   17.5782   25.9241 H   0  0  0  0  0  0  0  0  0  0  0  0
   18.1561   18.3229   25.7945 H   0  0  0  0  0  0  0  0  0  0  0  0
   19.5601   19.0425   24.4034 C   0  0  0  0  0  0  0  0  0  0  0  0
   19.1300   20.0421   24.3027 H   0  0  0  0  0  0  0  0  0  0  0  0
   19.0951   18.3923   23.6590 H   0  0  0  0  0  0  0  0  0  0  0  0
   21.0790   19.0937   24.1407 C   0  0  0  0  0  0  0  0  0  0  0  0
   21.5625   19.6951   24.9211 H   0  0  0  0  0  0  0  0  0  0  0  0
   21.4963   18.0818   24.2265 H   0  0  0  0  0  0  0  0  0  0  0  0
   21.4546   19.6927   22.7617 C   0  0  0  0  0  0  0  0  0  0  0  0
   22.5514   19.7293   22.7049 H   0  0  0  0  0  0  0  0  0  0  0  0
   21.1196   20.7373   22.6987 H   0  0  0  0  0  0  0  0  0  0  0  0
   20.9352   18.8869   21.5420 C   0  0  0  0  0  0  0  0  0  0  0  0
   21.6594   18.9971   20.7229 H   0  0  0  0  0  0  0  0  0  0  0  0
   20.9100   17.8147   21.7808 H   0  0  0  0  0  0  0  0  0  0  0  0
   19.5535   19.3573   21.0253 C   0  0  0  0  0  0  0  0  0  0  0  0
   19.6043   20.4212   20.7545 H   0  0  0  0  0  0  0  0  0  0  0  0
   18.7927   19.2713   21.8099 H   0  0  0  0  0  0  0  0  0  0  0  0
   19.0994   18.5422   19.7956 C   0  0  0  0  0  0  0  0  0  0  0  0
   19.8153   18.6411   18.9692 H   0  0  0  0  0  0  0  0  0  0  0  0
   18.1223   18.8918   19.4378 H   0  0  0  0  0  0  0  0  0  0  0  0
   19.0062   17.4762   20.0411 H   0  0  0  0  0  0  0  0  0  0  0  0
   19.5535   19.4741   26.8792 C   0  0  0  0  0  0  0  0  0  0  0  0
   19.0650   20.4339   26.6977 H   0  0  0  0  0  0  0  0  0  0  0  0
   19.2239   19.0684   27.8382 H   0  0  0  0  0  0  0  0  0  0  0  0
   20.6372   19.6057   26.8900 H   0  0  0  0  0  0  0  0  0  0  0  0
  1  2  1  0  0  0  0
  1  3  1  0  0  0  0
  1  4  1  0  0  0  0
  4  5  1  0  0  0  0
  4  6  1  0  0  0  0
  4  7  1  0  0  0  0
  7  8  1  0  0  0  0
  7  9  1  0  0  0  0
  7 10  1  0  0  0  0
 10 11  1  0  0  0  0
 10 12  1  0  0  0  0
 10 13  1  0  0  0  0
 13 14  1  0  0  0  0
 13 15  1  0  0  0  0
 13 16  1  0  0  0  0
 16 17  1  0  0  0  0
 16 18  1  0  0  0  0
 16 19  1  0  0  0  0
 19 20  1  0  0  0  0
 19 21  1  0  0  0  0
 19 22  1  0  0  0  0
  1 23  1  0  0  0  0
 23 24  1  0  0  0  0
 23 25  1  0  0  0  0
 23 26  1  0  0  0  0
M  END
> <VM2 Rank>
121

> <Conf_Id>
766

> <Probability>
0.03

> <Sum Probability>
99.28

> <Delta G>
3.313

> <G>
78.779

> <E>
46.276

> <-TS>
32.503

> <U+W>
24.814

> <U>
74.475

> <W>
-49.660

> <W(PB)>
-51.927

> <W(SA)>
2.267

> <Valence>
4.600

> <Coulomb>
69.381

> <VdW>
0.493

> <VdW6>
-7.465

> <VdW12>
7.959

> <Bond>
0.243

> <Angle>
1.200

> <Pdih>
3.158

> <Idih>
0.000

> <Tether>
0.000

$$$$
VeraChem MOL file


 26 25  0  0  0  0  0  0  0  0999 V2000     
   20.4729   18.4563   25.7730 N   0  3  0  0  0  0  0  0  0  0  0  0
   21.1042   17.9036   25.1736 H   0  0  0  0  0  0  0  0  0  0  0  0
   20.4076   17.9228   26.6543 H   0  0  0  0  0  0  0  0  0  0  0  0
   19.0930   18.5517   25.1416 C   0  0  0  0  0  0  0  0  0  0  0  0
   18.5908   19.4338   25.5465 H   0  0  0  0  0  0  0  0  0  0  0  0
   18.5355   17.6713   25.4716 H   0  0  0  0  0  0  0  0  0  0  0  0
   19.0687   18.5797   23.5970 C   0  0  0  0  0  0  0  0  0  0  0  0
   19.5502   17.6705   23.2152 H   0  0  0  0  0  0  0  0  0  0  0  0
   18.0203   18.5353   23.2738 H   0  0  0  0  0  0  0  0  0  0  0  0
   19.7346   19.8345   22.9806 C   0  0  0  0  0  0  0  0  0  0  0  0
   20.8145   19.8186   23.1731 H   0  0  0  0  0  0  0  0  0  0  0  0
   19.3451   20.7306   23.4830 H   0  0  0  0  0  0  0  0  0  0  0  0
   19.4851   19.9789   21.4570 C   0  0  0  0  0  0  0  0  0  0  0  0
   18.4084   20.1099   21.2818 H   0  0  0  0  0  0  0  0  0  0  0  0
   19.9605   20.9058   21.1077 H   0  0  0  0  0  0  0  0  0  0  0  0
   19.9920   18.7976   20.5905 C   0  0  0  0  0  0  0  0  0  0  0  0
   19.7511   19.0070   19.5389 H   0  0  0  0  0  0  0  0  0  0  0  0
   19.4473   17.8786   20.8455 H   0  0  0  0  0  0  0  0  0  0  0  0
   21.5133   18.5533   20.7128 C   0  0  0  0  0  0  0  0  0  0  0  0
   22.0793   19.4649   20.4811 H   0  0  0  0  0  0  0  0  0  0  0  0
   21.8347   17.7716   20.0125 H   0  0  0  0  0  0  0  0  0  0  0  0
   21.7885   18.2248   21.7226 H   0  0  0  0  0  0  0  0  0  0  0  0
   21.0484   19.8379   26.0647 C   0  0  0  0  0  0  0  0  0  0  0  0
   20.3734   20.3710   26.7377 H   0  0  0  0  0  0  0  0  0  0  0  0
   22.0255   19.7240   26.5394 H   0  0  0  0  0  0  0  0  0  0  0  0
   21.1564   20.3963   25.1341 H   0  0  0  0  0  0  0  0  0  0  0  0
  1  2  1  0  0  0  0
  1  3  1  0  0  0  0
  1  4  1  0  0  0  0
  4  5  1  0  0  0  0
  4  6  1  0  0  0  0
  4  7  1  0  0  0  0
  7  8  1  0  0  0  0
  7  9  1  0  0  0  0
  7 10  1  0  0  0  0
 10 11  1  0  0  0  0
 10 12  1  0  0  0  0
 10 13  1  0  0  0  0
 13 14  1  0  0  0  0
 13 15  1  0  0  0  0
 13 16  1  0  0  0  0
 16 17  1  0  0  0  0
 16 18  1  0  0  0  0
 16 19  1  0  0  0  0
 19 20  1  0  0  0  0
 19 21  1  0  0  0  0
 19 22  1  0  0  0  0
  1 23  1  0  0  0  0
 23 24  1  0  0  0  0
 23 25  1  0  0  0  0
 23 26  1  0  0  0  0
M  END
> <VM2 Rank>
122

> <Conf_Id>
221

> <Probability>
0.03

> <Sum Probability>
99.30

> <Delta G>
3.330

> <G>
78.796

> <E>
45.857

> <-TS>
32.940

> <U+W>
24.395

> <U>
74.343

> <W>
-49.948

> <W(PB)>
-52.138

> <W(SA)>
2.190

> <Valence>
4.643

> <Coulomb>
69.388

> <VdW>
0.311

> <VdW6>
-8.575

> <VdW12>
8.886

> <Bond>
0.266

> <Angle>
1.426

> <Pdih>
2.951

> <Idih>
0.000

> <Tether>
0.000

$$$$
VeraChem MOL file


 26 25  0  0  0  0  0  0  0  0999 V2000     
   19.6822   19.1884   25.9376 N   0  3  0  0  0  0  0  0  0  0  0  0
   19.9416   19.2639   26.9338 H   0  0  0  0  0  0  0  0  0  0  0  0
   18.7759   18.6965   25.9362 H   0  0  0  0  0  0  0  0  0  0  0  0
   20.7313   18.3637   25.2080 C   0  0  0  0  0  0  0  0  0  0  0  0
   21.1587   17.6806   25.9465 H   0  0  0  0  0  0  0  0  0  0  0  0
   21.5288   19.0333   24.8780 H   0  0  0  0  0  0  0  0  0  0  0  0
   20.2068   17.5149   24.0260 C   0  0  0  0  0  0  0  0  0  0  0  0
   21.0229   16.8681   23.6778 H   0  0  0  0  0  0  0  0  0  0  0  0
   19.4237   16.8391   24.3941 H   0  0  0  0  0  0  0  0  0  0  0  0
   19.6592   18.3183   22.8203 C   0  0  0  0  0  0  0  0  0  0  0  0
   18.7819   18.9015   23.1274 H   0  0  0  0  0  0  0  0  0  0  0  0
   19.2969   17.6016   22.0719 H   0  0  0  0  0  0  0  0  0  0  0  0
   20.7191   19.2453   22.1720 C   0  0  0  0  0  0  0  0  0  0  0  0
   21.1308   19.9240   22.9299 H   0  0  0  0  0  0  0  0  0  0  0  0
   21.5631   18.6432   21.8084 H   0  0  0  0  0  0  0  0  0  0  0  0
   20.1588   20.1031   21.0117 C   0  0  0  0  0  0  0  0  0  0  0  0
   20.9398   20.8027   20.6821 H   0  0  0  0  0  0  0  0  0  0  0  0
   19.3264   20.7219   21.3752 H   0  0  0  0  0  0  0  0  0  0  0  0
   19.6942   19.2686   19.7963 C   0  0  0  0  0  0  0  0  0  0  0  0
   18.8290   18.6415   20.0440 H   0  0  0  0  0  0  0  0  0  0  0  0
   20.4996   18.6169   19.4334 H   0  0  0  0  0  0  0  0  0  0  0  0
   19.3974   19.9268   18.9695 H   0  0  0  0  0  0  0  0  0  0  0  0
   19.5564   20.5876   25.3451 C   0  0  0  0  0  0  0  0  0  0  0  0
   19.2440   20.5191   24.3024 H   0  0  0  0  0  0  0  0  0  0  0  0
   18.8130   21.1500   25.9144 H   0  0  0  0  0  0  0  0  0  0  0  0
   20.5239   21.0902   25.4077 H   0  0  0  0  0  0  0  0  0  0  0  0
  1  2  1  0  0  0  0
  1  3  1  0  0  0  0
  1  4  1  0  0  0  0
  4  5  1  0  0  0  0
  4  6  1  0  0  0  0
  4  7  1  0  0  0  0
  7  8  1  0  0  0  0
  7  9  1  0  0  0  0
  7 10  1  0  0  0  0
 10 11  1  0  0  0  0
 10 12  1  0  0  0  0
 10 13  1  0  0  0  0
 13 14  1  0  0  0  0
 13 15  1  0  0  0  0
 13 16  1  0  0  0  0
 16 17  1  0  0  0  0
 16 18  1  0  0  0  0
 16 19  1  0  0  0  0
 19 20  1  0  0  0  0
 19 21  1  0  0  0  0
 19 22  1  0  0  0  0
  1 23  1  0  0  0  0
 23 24  1  0  0  0  0
 23 25  1  0  0  0  0
 23 26  1  0  0  0  0
M  END
> <VM2 Rank>
123

> <Conf_Id>
961

> <Probability>
0.03

> <Sum Probability>
99.33

> <Delta G>
3.337

> <G>
78.803

> <E>
45.757

> <-TS>
33.046

> <U+W>
24.295

> <U>
74.192

> <W>
-49.897

> <W(PB)>
-52.091

> <W(SA)>
2.194

> <Valence>
4.602

> <Coulomb>
69.486

> <VdW>
0.104

> <VdW6>
-8.802

> <VdW12>
8.906

> <Bond>
0.257

> <Angle>
1.462

> <Pdih>
2.883

> <Idih>
0.000

> <Tether>
0.000

$$$$
VeraChem MOL file


 26 25  0  0  0  0  0  0  0  0999 V2000     
   20.2029   19.2413   25.9559 N   0  3  0  0  0  0  0  0  0  0  0  0
   21.1873   18.9415   26.0214 H   0  0  0  0  0  0  0  0  0  0  0  0
   19.8646   19.2561   26.9310 H   0  0  0  0  0  0  0  0  0  0  0  0
   19.3945   18.2279   25.1606 C   0  0  0  0  0  0  0  0  0  0  0  0
   18.5038   18.7261   24.7709 H   0  0  0  0  0  0  0  0  0  0  0  0
   19.0623   17.4677   25.8723 H   0  0  0  0  0  0  0  0  0  0  0  0
   20.1601   17.5102   24.0244 C   0  0  0  0  0  0  0  0  0  0  0  0
   21.0352   17.0027   24.4511 H   0  0  0  0  0  0  0  0  0  0  0  0
   19.5169   16.7152   23.6244 H   0  0  0  0  0  0  0  0  0  0  0  0
   20.6183   18.4157   22.8543 C   0  0  0  0  0  0  0  0  0  0  0  0
   21.1687   17.7916   22.1382 H   0  0  0  0  0  0  0  0  0  0  0  0
   21.3369   19.1610   23.2179 H   0  0  0  0  0  0  0  0  0  0  0  0
   19.4420   19.1155   22.1267 C   0  0  0  0  0  0  0  0  0  0  0  0
   18.7637   18.3588   21.7091 H   0  0  0  0  0  0  0  0  0  0  0  0
   18.8502   19.6923   22.8491 H   0  0  0  0  0  0  0  0  0  0  0  0
   19.8985   20.0767   21.0025 C   0  0  0  0  0  0  0  0  0  0  0  0
   20.5620   20.8474   21.4191 H   0  0  0  0  0  0  0  0  0  0  0  0
   19.0180   20.6074   20.6140 H   0  0  0  0  0  0  0  0  0  0  0  0
   20.6054   19.3612   19.8287 C   0  0  0  0  0  0  0  0  0  0  0  0
   21.5595   18.9191   20.1409 H   0  0  0  0  0  0  0  0  0  0  0  0
   20.8211   20.0715   19.0201 H   0  0  0  0  0  0  0  0  0  0  0  0
   19.9750   18.5636   19.4149 H   0  0  0  0  0  0  0  0  0  0  0  0
   20.0863   20.6414   25.3638 C   0  0  0  0  0  0  0  0  0  0  0  0
   19.0356   20.9391   25.3550 H   0  0  0  0  0  0  0  0  0  0  0  0
   20.6599   21.3376   25.9797 H   0  0  0  0  0  0  0  0  0  0  0  0
   20.4782   20.6445   24.3461 H   0  0  0  0  0  0  0  0  0  0  0  0
  1  2  1  0  0  0  0
  1  3  1  0  0  0  0
  1  4  1  0  0  0  0
  4  5  1  0  0  0  0
  4  6  1  0  0  0  0
  4  7  1  0  0  0  0
  7  8  1  0  0  0  0
  7  9  1  0  0  0  0
  7 10  1  0  0  0  0
 10 11  1  0  0  0  0
 10 12  1  0  0  0  0
 10 13  1  0  0  0  0
 13 14  1  0  0  0  0
 13 15  1  0  0  0  0
 13 16  1  0  0  0  0
 16 17  1  0  0  0  0
 16 18  1  0  0  0  0
 16 19  1  0  0  0  0
 19 20  1  0  0  0  0
 19 21  1  0  0  0  0
 19 22  1  0  0  0  0
  1 23  1  0  0  0  0
 23 24  1  0  0  0  0
 23 25  1  0  0  0  0
 23 26  1  0  0  0  0
M  END
> <VM2 Rank>
124

> <Conf_Id>
509

> <Probability>
0.03

> <Sum Probability>
99.35

> <Delta G>
3.344

> <G>
78.810

> <E>
45.763

> <-TS>
33.046

> <U+W>
24.301

> <U>
74.192

> <W>
-49.890

> <W(PB)>
-52.099

> <W(SA)>
2.209

> <Valence>
4.602

> <Coulomb>
69.486

> <VdW>
0.104

> <VdW6>
-8.802

> <VdW12>
8.907

> <Bond>
0.257

> <Angle>
1.462

> <Pdih>
2.883

> <Idih>
0.000

> <Tether>
0.000

$$$$
VeraChem MOL file


 26 25  0  0  0  0  0  0  0  0999 V2000     
   19.0788   18.5578   25.6996 N   0  3  0  0  0  0  0  0  0  0  0  0
   19.2500   17.5561   25.5217 H   0  0  0  0  0  0  0  0  0  0  0  0
   18.0586   18.6333   25.8392 H   0  0  0  0  0  0  0  0  0  0  0  0
   19.4895   19.3840   24.4921 C   0  0  0  0  0  0  0  0  0  0  0  0
   19.3327   20.4374   24.7375 H   0  0  0  0  0  0  0  0  0  0  0  0
   18.8086   19.1249   23.6799 H   0  0  0  0  0  0  0  0  0  0  0  0
   20.9486   19.1666   24.0340 C   0  0  0  0  0  0  0  0  0  0  0  0
   21.6177   19.4897   24.8419 H   0  0  0  0  0  0  0  0  0  0  0  0
   21.1443   18.0975   23.8787 H   0  0  0  0  0  0  0  0  0  0  0  0
   21.3072   19.9648   22.7550 C   0  0  0  0  0  0  0  0  0  0  0  0
   22.3846   20.1798   22.7772 H   0  0  0  0  0  0  0  0  0  0  0  0
   20.8090   20.9442   22.7703 H   0  0  0  0  0  0  0  0  0  0  0  0
   21.0046   19.2329   21.4213 C   0  0  0  0  0  0  0  0  0  0  0  0
   21.3631   19.8640   20.5962 H   0  0  0  0  0  0  0  0  0  0  0  0
   21.5917   18.3055   21.3718 H   0  0  0  0  0  0  0  0  0  0  0  0
   19.5110   18.9068   21.1896 C   0  0  0  0  0  0  0  0  0  0  0  0
   18.9029   19.8090   21.3448 H   0  0  0  0  0  0  0  0  0  0  0  0
   19.1743   18.1574   21.9177 H   0  0  0  0  0  0  0  0  0  0  0  0
   19.2613   18.3602   19.7677 C   0  0  0  0  0  0  0  0  0  0  0  0
   19.8369   17.4421   19.5911 H   0  0  0  0  0  0  0  0  0  0  0  0
   19.5485   19.0957   19.0049 H   0  0  0  0  0  0  0  0  0  0  0  0
   18.1989   18.1244   19.6240 H   0  0  0  0  0  0  0  0  0  0  0  0
   19.8072   19.0167   26.9578 C   0  0  0  0  0  0  0  0  0  0  0  0
   19.4581   18.4264   27.8078 H   0  0  0  0  0  0  0  0  0  0  0  0
   20.8814   18.8718   26.8272 H   0  0  0  0  0  0  0  0  0  0  0  0
   19.5936   20.0738   27.1306 H   0  0  0  0  0  0  0  0  0  0  0  0
  1  2  1  0  0  0  0
  1  3  1  0  0  0  0
  1  4  1  0  0  0  0
  4  5  1  0  0  0  0
  4  6  1  0  0  0  0
  4  7  1  0  0  0  0
  7  8  1  0  0  0  0
  7  9  1  0  0  0  0
  7 10  1  0  0  0  0
 10 11  1  0  0  0  0
 10 12  1  0  0  0  0
 10 13  1  0  0  0  0
 13 14  1  0  0  0  0
 13 15  1  0  0  0  0
 13 16  1  0  0  0  0
 16 17  1  0  0  0  0
 16 18  1  0  0  0  0
 16 19  1  0  0  0  0
 19 20  1  0  0  0  0
 19 21  1  0  0  0  0
 19 22  1  0  0  0  0
  1 23  1  0  0  0  0
 23 24  1  0  0  0  0
 23 25  1  0  0  0  0
 23 26  1  0  0  0  0
M  END
> <VM2 Rank>
125

> <Conf_Id>
554

> <Probability>
0.02

> <Sum Probability>
99.38

> <Delta G>
3.363

> <G>
78.829

> <E>
46.144

> <-TS>
32.685

> <U+W>
24.682

> <U>
74.467

> <W>
-49.785

> <W(PB)>
-52.031

> <W(SA)>
2.246

> <Valence>
4.429

> <Coulomb>
69.610

> <VdW>
0.428

> <VdW6>
-7.654

> <VdW12>
8.082

> <Bond>
0.236

> <Angle>
1.210

> <Pdih>
2.984

> <Idih>
0.000

> <Tether>
0.000

$$$$
VeraChem MOL file


 26 25  0  0  0  0  0  0  0  0999 V2000     
   19.7003   18.4407   26.0188 N   0  3  0  0  0  0  0  0  0  0  0  0
   20.5252   17.8442   26.1879 H   0  0  0  0  0  0  0  0  0  0  0  0
   18.9592   17.7994   25.6957 H   0  0  0  0  0  0  0  0  0  0  0  0
   20.0081   19.4671   24.9471 C   0  0  0  0  0  0  0  0  0  0  0  0
   20.8004   20.1185   25.3246 H   0  0  0  0  0  0  0  0  0  0  0  0
   19.1101   20.0708   24.7933 H   0  0  0  0  0  0  0  0  0  0  0  0
   20.4456   18.8403   23.6109 C   0  0  0  0  0  0  0  0  0  0  0  0
   21.3379   18.2219   23.7757 H   0  0  0  0  0  0  0  0  0  0  0  0
   19.6568   18.1695   23.2526 H   0  0  0  0  0  0  0  0  0  0  0  0
   20.7584   19.9276   22.5548 C   0  0  0  0  0  0  0  0  0  0  0  0
   21.5679   20.5598   22.9458 H   0  0  0  0  0  0  0  0  0  0  0  0
   19.8933   20.5918   22.4207 H   0  0  0  0  0  0  0  0  0  0  0  0
   21.2042   19.3508   21.1854 C   0  0  0  0  0  0  0  0  0  0  0  0
   21.9564   20.0282   20.7578 H   0  0  0  0  0  0  0  0  0  0  0  0
   21.7180   18.3897   21.3249 H   0  0  0  0  0  0  0  0  0  0  0  0
   20.0670   19.2008   20.1425 C   0  0  0  0  0  0  0  0  0  0  0  0
   20.5061   18.8548   19.1962 H   0  0  0  0  0  0  0  0  0  0  0  0
   19.6285   20.1860   19.9310 H   0  0  0  0  0  0  0  0  0  0  0  0
   18.9476   18.2202   20.5558 C   0  0  0  0  0  0  0  0  0  0  0  0
   18.2505   18.0614   19.7228 H   0  0  0  0  0  0  0  0  0  0  0  0
   18.3652   18.6123   21.3985 H   0  0  0  0  0  0  0  0  0  0  0  0
   19.3603   17.2432   20.8386 H   0  0  0  0  0  0  0  0  0  0  0  0
   19.2769   19.1425   27.3018 C   0  0  0  0  0  0  0  0  0  0  0  0
   18.3842   19.7406   27.1062 H   0  0  0  0  0  0  0  0  0  0  0  0
   19.0583   18.3923   28.0651 H   0  0  0  0  0  0  0  0  0  0  0  0
   20.0886   19.7892   27.6420 H   0  0  0  0  0  0  0  0  0  0  0  0
  1  2  1  0  0  0  0
  1  3  1  0  0  0  0
  1  4  1  0  0  0  0
  4  5  1  0  0  0  0
  4  6  1  0  0  0  0
  4  7  1  0  0  0  0
  7  8  1  0  0  0  0
  7  9  1  0  0  0  0
  7 10  1  0  0  0  0
 10 11  1  0  0  0  0
 10 12  1  0  0  0  0
 10 13  1  0  0  0  0
 13 14  1  0  0  0  0
 13 15  1  0  0  0  0
 13 16  1  0  0  0  0
 16 17  1  0  0  0  0
 16 18  1  0  0  0  0
 16 19  1  0  0  0  0
 19 20  1  0  0  0  0
 19 21  1  0  0  0  0
 19 22  1  0  0  0  0
  1 23  1  0  0  0  0
 23 24  1  0  0  0  0
 23 25  1  0  0  0  0
 23 26  1  0  0  0  0
M  END
> <VM2 Rank>
126

> <Conf_Id>
1339

> <Probability>
0.02

> <Sum Probability>
99.40

> <Delta G>
3.371

> <G>
78.837

> <E>
46.334

> <-TS>
32.503

> <U+W>
24.872

> <U>
74.070

> <W>
-49.198

> <W(PB)>
-51.475

> <W(SA)>
2.277

> <Valence>
4.690

> <Coulomb>
69.115

> <VdW>
0.266

> <VdW6>
-6.809

> <VdW12>
7.075

> <Bond>
0.212

> <Angle>
1.133

> <Pdih>
3.345

> <Idih>
0.000

> <Tether>
0.000

$$$$
VeraChem MOL file


 26 25  0  0  0  0  0  0  0  0999 V2000     
   20.9363   18.7483   25.7657 N   0  3  0  0  0  0  0  0  0  0  0  0
   21.9078   19.0276   25.9756 H   0  0  0  0  0  0  0  0  0  0  0  0
   20.9840   17.7338   25.5842 H   0  0  0  0  0  0  0  0  0  0  0  0
   20.4525   19.4821   24.5261 C   0  0  0  0  0  0  0  0  0  0  0  0
   21.2270   19.3716   23.7656 H   0  0  0  0  0  0  0  0  0  0  0  0
   20.3751   20.5437   24.7737 H   0  0  0  0  0  0  0  0  0  0  0  0
   19.1035   18.9767   23.9687 C   0  0  0  0  0  0  0  0  0  0  0  0
   19.1399   17.8912   23.8077 H   0  0  0  0  0  0  0  0  0  0  0  0
   18.3280   19.1516   24.7255 H   0  0  0  0  0  0  0  0  0  0  0  0
   18.6807   19.6948   22.6621 C   0  0  0  0  0  0  0  0  0  0  0  0
   18.9674   20.7548   22.7053 H   0  0  0  0  0  0  0  0  0  0  0  0
   17.5833   19.6864   22.6073 H   0  0  0  0  0  0  0  0  0  0  0  0
   19.2181   19.0494   21.3581 C   0  0  0  0  0  0  0  0  0  0  0  0
   18.8365   18.0224   21.2741 H   0  0  0  0  0  0  0  0  0  0  0  0
   18.7975   19.6004   20.5055 H   0  0  0  0  0  0  0  0  0  0  0  0
   20.7593   19.0351   21.2336 C   0  0  0  0  0  0  0  0  0  0  0  0
   21.1895   18.3642   21.9885 H   0  0  0  0  0  0  0  0  0  0  0  0
   21.1591   20.0408   21.4248 H   0  0  0  0  0  0  0  0  0  0  0  0
   21.2135   18.5613   19.8364 C   0  0  0  0  0  0  0  0  0  0  0  0
   22.3091   18.5473   19.7690 H   0  0  0  0  0  0  0  0  0  0  0  0
   20.8370   19.2290   19.0505 H   0  0  0  0  0  0  0  0  0  0  0  0
   20.8502   17.5469   19.6262 H   0  0  0  0  0  0  0  0  0  0  0  0
   20.0440   19.0423   26.9664 C   0  0  0  0  0  0  0  0  0  0  0  0
   20.4449   18.5293   27.8434 H   0  0  0  0  0  0  0  0  0  0  0  0
   20.0268   20.1196   27.1454 H   0  0  0  0  0  0  0  0  0  0  0  0
   19.0330   18.6840   26.7623 H   0  0  0  0  0  0  0  0  0  0  0  0
  1  2  1  0  0  0  0
  1  3  1  0  0  0  0
  1  4  1  0  0  0  0
  4  5  1  0  0  0  0
  4  6  1  0  0  0  0
  4  7  1  0  0  0  0
  7  8  1  0  0  0  0
  7  9  1  0  0  0  0
  7 10  1  0  0  0  0
 10 11  1  0  0  0  0
 10 12  1  0  0  0  0
 10 13  1  0  0  0  0
 13 14  1  0  0  0  0
 13 15  1  0  0  0  0
 13 16  1  0  0  0  0
 16 17  1  0  0  0  0
 16 18  1  0  0  0  0
 16 19  1  0  0  0  0
 19 20  1  0  0  0  0
 19 21  1  0  0  0  0
 19 22  1  0  0  0  0
  1 23  1  0  0  0  0
 23 24  1  0  0  0  0
 23 25  1  0  0  0  0
 23 26  1  0  0  0  0
M  END
> <VM2 Rank>
127

> <Conf_Id>
1306

> <Probability>
0.02

> <Sum Probability>
99.43

> <Delta G>
3.379

> <G>
78.845

> <E>
46.162

> <-TS>
32.684

> <U+W>
24.700

> <U>
74.467

> <W>
-49.767

> <W(PB)>
-52.030

> <W(SA)>
2.263

> <Valence>
4.429

> <Coulomb>
69.609

> <VdW>
0.428

> <VdW6>
-7.654

> <VdW12>
8.081

> <Bond>
0.236

> <Angle>
1.210

> <Pdih>
2.983

> <Idih>
0.000

> <Tether>
0.000

$$$$
VeraChem MOL file


 26 25  0  0  0  0  0  0  0  0999 V2000     
   20.4166   18.4576   25.9572 N   0  3  0  0  0  0  0  0  0  0  0  0
   21.4125   18.3094   25.7315 H   0  0  0  0  0  0  0  0  0  0  0  0
   19.9717   17.5318   25.8587 H   0  0  0  0  0  0  0  0  0  0  0  0
   19.7998   19.4405   24.9823 C   0  0  0  0  0  0  0  0  0  0  0  0
   20.3024   20.4022   25.1126 H   0  0  0  0  0  0  0  0  0  0  0  0
   18.7474   19.5627   25.2505 H   0  0  0  0  0  0  0  0  0  0  0  0
   19.9115   18.9927   23.5136 C   0  0  0  0  0  0  0  0  0  0  0  0
   20.9713   18.8604   23.2631 H   0  0  0  0  0  0  0  0  0  0  0  0
   19.4182   18.0195   23.3896 H   0  0  0  0  0  0  0  0  0  0  0  0
   19.2729   20.0273   22.5594 C   0  0  0  0  0  0  0  0  0  0  0  0
   19.8301   20.9725   22.6204 H   0  0  0  0  0  0  0  0  0  0  0  0
   18.2545   20.2508   22.9065 H   0  0  0  0  0  0  0  0  0  0  0  0
   19.1919   19.5712   21.0793 C   0  0  0  0  0  0  0  0  0  0  0  0
   18.5465   18.6864   20.9910 H   0  0  0  0  0  0  0  0  0  0  0  0
   18.6816   20.3655   20.5170 H   0  0  0  0  0  0  0  0  0  0  0  0
   20.5616   19.3058   20.4024 C   0  0  0  0  0  0  0  0  0  0  0  0
   21.3389   19.9403   20.8505 H   0  0  0  0  0  0  0  0  0  0  0  0
   20.4952   19.6099   19.3483 H   0  0  0  0  0  0  0  0  0  0  0  0
   20.9903   17.8201   20.4422 C   0  0  0  0  0  0  0  0  0  0  0  0
   21.1044   17.4497   21.4667 H   0  0  0  0  0  0  0  0  0  0  0  0
   21.9524   17.6846   19.9314 H   0  0  0  0  0  0  0  0  0  0  0  0
   20.2524   17.1857   19.9342 H   0  0  0  0  0  0  0  0  0  0  0  0
   20.2633   18.9749   27.3808 C   0  0  0  0  0  0  0  0  0  0  0  0
   19.2013   19.0923   27.6078 H   0  0  0  0  0  0  0  0  0  0  0  0
   20.7113   18.2581   28.0726 H   0  0  0  0  0  0  0  0  0  0  0  0
   20.7695   19.9387   27.4692 H   0  0  0  0  0  0  0  0  0  0  0  0
  1  2  1  0  0  0  0
  1  3  1  0  0  0  0
  1  4  1  0  0  0  0
  4  5  1  0  0  0  0
  4  6  1  0  0  0  0
  4  7  1  0  0  0  0
  7  8  1  0  0  0  0
  7  9  1  0  0  0  0
  7 10  1  0  0  0  0
 10 11  1  0  0  0  0
 10 12  1  0  0  0  0
 10 13  1  0  0  0  0
 13 14  1  0  0  0  0
 13 15  1  0  0  0  0
 13 16  1  0  0  0  0
 16 17  1  0  0  0  0
 16 18  1  0  0  0  0
 16 19  1  0  0  0  0
 19 20  1  0  0  0  0
 19 21  1  0  0  0  0
 19 22  1  0  0  0  0
  1 23  1  0  0  0  0
 23 24  1  0  0  0  0
 23 25  1  0  0  0  0
 23 26  1  0  0  0  0
M  END
> <VM2 Rank>
128

> <Conf_Id>
730

> <Probability>
0.02

> <Sum Probability>
99.45

> <Delta G>
3.421

> <G>
78.887

> <E>
46.395

> <-TS>
32.493

> <U+W>
24.933

> <U>
74.134

> <W>
-49.201

> <W(PB)>
-51.486

> <W(SA)>
2.285

> <Valence>
4.712

> <Coulomb>
69.140

> <VdW>
0.281

> <VdW6>
-6.800

> <VdW12>
7.081

> <Bond>
0.212

> <Angle>
1.171

> <Pdih>
3.329

> <Idih>
0.000

> <Tether>
0.000

$$$$
VeraChem MOL file


 26 25  0  0  0  0  0  0  0  0999 V2000     
   19.9714   18.6189   26.2310 N   0  3  0  0  0  0  0  0  0  0  0  0
   20.9045   18.2010   26.3683 H   0  0  0  0  0  0  0  0  0  0  0  0
   19.4048   18.2590   27.0154 H   0  0  0  0  0  0  0  0  0  0  0  0
   19.3701   18.1369   24.9176 C   0  0  0  0  0  0  0  0  0  0  0  0
   18.3847   18.5940   24.7976 H   0  0  0  0  0  0  0  0  0  0  0  0
   19.2249   17.0591   25.0274 H   0  0  0  0  0  0  0  0  0  0  0  0
   20.2279   18.3808   23.6560 C   0  0  0  0  0  0  0  0  0  0  0  0
   21.2942   18.3549   23.9162 H   0  0  0  0  0  0  0  0  0  0  0  0
   20.0548   17.5412   22.9713 H   0  0  0  0  0  0  0  0  0  0  0  0
   19.8755   19.7017   22.9259 C   0  0  0  0  0  0  0  0  0  0  0  0
   19.9572   20.5452   23.6212 H   0  0  0  0  0  0  0  0  0  0  0  0
   18.8241   19.6787   22.6101 H   0  0  0  0  0  0  0  0  0  0  0  0
   20.7869   19.9967   21.7062 C   0  0  0  0  0  0  0  0  0  0  0  0
   20.4956   20.9646   21.2753 H   0  0  0  0  0  0  0  0  0  0  0  0
   21.8207   20.1235   22.0559 H   0  0  0  0  0  0  0  0  0  0  0  0
   20.7667   18.9250   20.5862 C   0  0  0  0  0  0  0  0  0  0  0  0
   21.1719   17.9755   20.9610 H   0  0  0  0  0  0  0  0  0  0  0  0
   21.4471   19.2449   19.7847 H   0  0  0  0  0  0  0  0  0  0  0  0
   19.3629   18.6919   19.9828 C   0  0  0  0  0  0  0  0  0  0  0  0
   19.4193   17.9966   19.1353 H   0  0  0  0  0  0  0  0  0  0  0  0
   18.9294   19.6318   19.6175 H   0  0  0  0  0  0  0  0  0  0  0  0
   18.6749   18.2589   20.7195 H   0  0  0  0  0  0  0  0  0  0  0  0
   20.0466   20.1381   26.3113 C   0  0  0  0  0  0  0  0  0  0  0  0
   20.7432   20.5038   25.5547 H   0  0  0  0  0  0  0  0  0  0  0  0
   19.0529   20.5572   26.1396 H   0  0  0  0  0  0  0  0  0  0  0  0
   20.4024   20.4254   27.3033 H   0  0  0  0  0  0  0  0  0  0  0  0
  1  2  1  0  0  0  0
  1  3  1  0  0  0  0
  1  4  1  0  0  0  0
  4  5  1  0  0  0  0
  4  6  1  0  0  0  0
  4  7  1  0  0  0  0
  7  8  1  0  0  0  0
  7  9  1  0  0  0  0
  7 10  1  0  0  0  0
 10 11  1  0  0  0  0
 10 12  1  0  0  0  0
 10 13  1  0  0  0  0
 13 14  1  0  0  0  0
 13 15  1  0  0  0  0
 13 16  1  0  0  0  0
 16 17  1  0  0  0  0
 16 18  1  0  0  0  0
 16 19  1  0  0  0  0
 19 20  1  0  0  0  0
 19 21  1  0  0  0  0
 19 22  1  0  0  0  0
  1 23  1  0  0  0  0
 23 24  1  0  0  0  0
 23 25  1  0  0  0  0
 23 26  1  0  0  0  0
M  END
> <VM2 Rank>
129

> <Conf_Id>
1076

> <Probability>
0.02

> <Sum Probability>
99.47

> <Delta G>
3.439

> <G>
78.905

> <E>
46.098

> <-TS>
32.807

> <U+W>
24.636

> <U>
74.315

> <W>
-49.679

> <W(PB)>
-51.876

> <W(SA)>
2.197

> <Valence>
4.914

> <Coulomb>
68.873

> <VdW>
0.528

> <VdW6>
-8.388

> <VdW12>
8.915

> <Bond>
0.278

> <Angle>
1.571

> <Pdih>
3.064

> <Idih>
0.000

> <Tether>
0.000

$$$$
VeraChem MOL file


 26 25  0  0  0  0  0  0  0  0999 V2000     
   20.3306   18.5052   26.0411 N   0  3  0  0  0  0  0  0  0  0  0  0
   21.2067   18.0294   25.7752 H   0  0  0  0  0  0  0  0  0  0  0  0
   19.6336   17.7531   26.1565 H   0  0  0  0  0  0  0  0  0  0  0  0
   19.8972   19.4558   24.9431 C   0  0  0  0  0  0  0  0  0  0  0  0
   20.6631   20.2297   24.8481 H   0  0  0  0  0  0  0  0  0  0  0  0
   18.9651   19.9307   25.2595 H   0  0  0  0  0  0  0  0  0  0  0  0
   19.6902   18.7629   23.5842 C   0  0  0  0  0  0  0  0  0  0  0  0
   20.6215   18.2681   23.2868 H   0  0  0  0  0  0  0  0  0  0  0  0
   18.9321   17.9756   23.6906 H   0  0  0  0  0  0  0  0  0  0  0  0
   19.2386   19.7719   22.5009 C   0  0  0  0  0  0  0  0  0  0  0  0
   19.9585   20.5984   22.4230 H   0  0  0  0  0  0  0  0  0  0  0  0
   18.2925   20.2243   22.8297 H   0  0  0  0  0  0  0  0  0  0  0  0
   19.0158   19.1265   21.1079 C   0  0  0  0  0  0  0  0  0  0  0  0
   18.6988   18.0803   21.2180 H   0  0  0  0  0  0  0  0  0  0  0  0
   18.1738   19.6406   20.6238 H   0  0  0  0  0  0  0  0  0  0  0  0
   20.2300   19.2174   20.1482 C   0  0  0  0  0  0  0  0  0  0  0  0
   20.4735   20.2726   19.9608 H   0  0  0  0  0  0  0  0  0  0  0  0
   19.9375   18.7963   19.1761 H   0  0  0  0  0  0  0  0  0  0  0  0
   21.4931   18.4812   20.6461 C   0  0  0  0  0  0  0  0  0  0  0  0
   22.2645   18.4728   19.8652 H   0  0  0  0  0  0  0  0  0  0  0  0
   21.2681   17.4388   20.9064 H   0  0  0  0  0  0  0  0  0  0  0  0
   21.9234   18.9771   21.5246 H   0  0  0  0  0  0  0  0  0  0  0  0
   20.5126   19.2691   27.3454 C   0  0  0  0  0  0  0  0  0  0  0  0
   19.5651   19.7359   27.6235 H   0  0  0  0  0  0  0  0  0  0  0  0
   20.8244   18.5732   28.1276 H   0  0  0  0  0  0  0  0  0  0  0  0
   21.2773   20.0368   27.2084 H   0  0  0  0  0  0  0  0  0  0  0  0
  1  2  1  0  0  0  0
  1  3  1  0  0  0  0
  1  4  1  0  0  0  0
  4  5  1  0  0  0  0
  4  6  1  0  0  0  0
  4  7  1  0  0  0  0
  7  8  1  0  0  0  0
  7  9  1  0  0  0  0
  7 10  1  0  0  0  0
 10 11  1  0  0  0  0
 10 12  1  0  0  0  0
 10 13  1  0  0  0  0
 13 14  1  0  0  0  0
 13 15  1  0  0  0  0
 13 16  1  0  0  0  0
 16 17  1  0  0  0  0
 16 18  1  0  0  0  0
 16 19  1  0  0  0  0
 19 20  1  0  0  0  0
 19 21  1  0  0  0  0
 19 22  1  0  0  0  0
  1 23  1  0  0  0  0
 23 24  1  0  0  0  0
 23 25  1  0  0  0  0
 23 26  1  0  0  0  0
M  END
> <VM2 Rank>
130

> <Conf_Id>
700

> <Probability>
0.02

> <Sum Probability>
99.49

> <Delta G>
3.442

> <G>
78.908

> <E>
46.405

> <-TS>
32.503

> <U+W>
24.943

> <U>
74.070

> <W>
-49.127

> <W(PB)>
-51.424

> <W(SA)>
2.296

> <Valence>
4.689

> <Coulomb>
69.115

> <VdW>
0.266

> <VdW6>
-6.809

> <VdW12>
7.076

> <Bond>
0.212

> <Angle>
1.132

> <Pdih>
3.345

> <Idih>
0.000

> <Tether>
0.000

$$$$
VeraChem MOL file


 26 25  0  0  0  0  0  0  0  0999 V2000     
   19.6320   18.3771   25.9294 N   0  3  0  0  0  0  0  0  0  0  0  0
   20.2611   17.5614   25.8688 H   0  0  0  0  0  0  0  0  0  0  0  0
   18.7051   18.0318   25.6356 H   0  0  0  0  0  0  0  0  0  0  0  0
   20.1034   19.4716   24.9930 C   0  0  0  0  0  0  0  0  0  0  0  0
   21.0878   19.8028   25.3333 H   0  0  0  0  0  0  0  0  0  0  0  0
   19.4085   20.3106   25.0810 H   0  0  0  0  0  0  0  0  0  0  0  0
   20.1880   19.0211   23.5234 C   0  0  0  0  0  0  0  0  0  0  0  0
   20.8757   18.1691   23.4412 H   0  0  0  0  0  0  0  0  0  0  0  0
   19.1971   18.6785   23.2003 H   0  0  0  0  0  0  0  0  0  0  0  0
   20.6686   20.1705   22.6088 C   0  0  0  0  0  0  0  0  0  0  0  0
   21.5937   20.5935   23.0248 H   0  0  0  0  0  0  0  0  0  0  0  0
   19.9285   20.9826   22.6238 H   0  0  0  0  0  0  0  0  0  0  0  0
   20.9440   19.7509   21.1413 C   0  0  0  0  0  0  0  0  0  0  0  0
   21.3207   20.6362   20.6104 H   0  0  0  0  0  0  0  0  0  0  0  0
   21.7599   19.0160   21.1048 H   0  0  0  0  0  0  0  0  0  0  0  0
   19.7074   19.2181   20.3720 C   0  0  0  0  0  0  0  0  0  0  0  0
   19.7845   19.5368   19.3230 H   0  0  0  0  0  0  0  0  0  0  0  0
   18.7881   19.6787   20.7600 H   0  0  0  0  0  0  0  0  0  0  0  0
   19.5871   17.6761   20.3926 C   0  0  0  0  0  0  0  0  0  0  0  0
   20.4721   17.2081   19.9424 H   0  0  0  0  0  0  0  0  0  0  0  0
   18.7107   17.3520   19.8165 H   0  0  0  0  0  0  0  0  0  0  0  0
   19.4788   17.2831   21.4093 H   0  0  0  0  0  0  0  0  0  0  0  0
   19.5775   18.9044   27.3565 C   0  0  0  0  0  0  0  0  0  0  0  0
   19.2368   18.1067   28.0204 H   0  0  0  0  0  0  0  0  0  0  0  0
   20.5751   19.2328   27.6564 H   0  0  0  0  0  0  0  0  0  0  0  0
   18.8817   19.7450   27.4025 H   0  0  0  0  0  0  0  0  0  0  0  0
  1  2  1  0  0  0  0
  1  3  1  0  0  0  0
  1  4  1  0  0  0  0
  4  5  1  0  0  0  0
  4  6  1  0  0  0  0
  4  7  1  0  0  0  0
  7  8  1  0  0  0  0
  7  9  1  0  0  0  0
  7 10  1  0  0  0  0
 10 11  1  0  0  0  0
 10 12  1  0  0  0  0
 10 13  1  0  0  0  0
 13 14  1  0  0  0  0
 13 15  1  0  0  0  0
 13 16  1  0  0  0  0
 16 17  1  0  0  0  0
 16 18  1  0  0  0  0
 16 19  1  0  0  0  0
 19 20  1  0  0  0  0
 19 21  1  0  0  0  0
 19 22  1  0  0  0  0
  1 23  1  0  0  0  0
 23 24  1  0  0  0  0
 23 25  1  0  0  0  0
 23 26  1  0  0  0  0
M  END
> <VM2 Rank>
131

> <Conf_Id>
1346

> <Probability>
0.02

> <Sum Probability>
99.51

> <Delta G>
3.452

> <G>
78.918

> <E>
46.425

> <-TS>
32.493

> <U+W>
24.963

> <U>
74.134

> <W>
-49.171

> <W(PB)>
-51.475

> <W(SA)>
2.304

> <Valence>
4.712

> <Coulomb>
69.140

> <VdW>
0.281

> <VdW6>
-6.800

> <VdW12>
7.082

> <Bond>
0.212

> <Angle>
1.172

> <Pdih>
3.329

> <Idih>
0.000

> <Tether>
0.000

$$$$
VeraChem MOL file


 26 25  0  0  0  0  0  0  0  0999 V2000     
   19.5896   18.3661   25.7418 N   0  3  0  0  0  0  0  0  0  0  0  0
   19.6994   17.8507   26.6294 H   0  0  0  0  0  0  0  0  0  0  0  0
   19.1265   17.7015   25.1038 H   0  0  0  0  0  0  0  0  0  0  0  0
   20.9626   18.7427   25.2078 C   0  0  0  0  0  0  0  0  0  0  0  0
   21.6618   17.9907   25.5824 H   0  0  0  0  0  0  0  0  0  0  0  0
   21.2467   19.7052   25.6405 H   0  0  0  0  0  0  0  0  0  0  0  0
   21.0888   18.7859   23.6686 C   0  0  0  0  0  0  0  0  0  0  0  0
   22.1446   18.9562   23.4199 H   0  0  0  0  0  0  0  0  0  0  0  0
   20.8285   17.8010   23.2607 H   0  0  0  0  0  0  0  0  0  0  0  0
   20.2282   19.8849   22.9980 C   0  0  0  0  0  0  0  0  0  0  0  0
   20.3928   20.8376   23.5200 H   0  0  0  0  0  0  0  0  0  0  0  0
   19.1630   19.6501   23.1145 H   0  0  0  0  0  0  0  0  0  0  0  0
   20.5496   20.0875   21.4947 C   0  0  0  0  0  0  0  0  0  0  0  0
   19.9227   20.9019   21.1062 H   0  0  0  0  0  0  0  0  0  0  0  0
   21.5874   20.4342   21.3944 H   0  0  0  0  0  0  0  0  0  0  0  0
   20.3534   18.8344   20.6033 C   0  0  0  0  0  0  0  0  0  0  0  0
   21.0530   18.0424   20.9024 H   0  0  0  0  0  0  0  0  0  0  0  0
   20.6202   19.0956   19.5697 H   0  0  0  0  0  0  0  0  0  0  0  0
   18.9079   18.2875   20.6204 C   0  0  0  0  0  0  0  0  0  0  0  0
   18.6345   17.9030   21.6108 H   0  0  0  0  0  0  0  0  0  0  0  0
   18.8006   17.4620   19.9049 H   0  0  0  0  0  0  0  0  0  0  0  0
   18.1873   19.0678   20.3431 H   0  0  0  0  0  0  0  0  0  0  0  0
   18.7279   19.6010   25.9824 C   0  0  0  0  0  0  0  0  0  0  0  0
   17.7632   19.2887   26.3885 H   0  0  0  0  0  0  0  0  0  0  0  0
   19.2326   20.2547   26.6971 H   0  0  0  0  0  0  0  0  0  0  0  0
   18.5747   20.1325   25.0425 H   0  0  0  0  0  0  0  0  0  0  0  0
  1  2  1  0  0  0  0
  1  3  1  0  0  0  0
  1  4  1  0  0  0  0
  4  5  1  0  0  0  0
  4  6  1  0  0  0  0
  4  7  1  0  0  0  0
  7  8  1  0  0  0  0
  7  9  1  0  0  0  0
  7 10  1  0  0  0  0
 10 11  1  0  0  0  0
 10 12  1  0  0  0  0
 10 13  1  0  0  0  0
 13 14  1  0  0  0  0
 13 15  1  0  0  0  0
 13 16  1  0  0  0  0
 16 17  1  0  0  0  0
 16 18  1  0  0  0  0
 16 19  1  0  0  0  0
 19 20  1  0  0  0  0
 19 21  1  0  0  0  0
 19 22  1  0  0  0  0
  1 23  1  0  0  0  0
 23 24  1  0  0  0  0
 23 25  1  0  0  0  0
 23 26  1  0  0  0  0
M  END
> <VM2 Rank>
132

> <Conf_Id>
1358

> <Probability>
0.02

> <Sum Probability>
99.53

> <Delta G>
3.464

> <G>
78.930

> <E>
45.990

> <-TS>
32.939

> <U+W>
24.529

> <U>
74.342

> <W>
-49.814

> <W(PB)>
-52.009

> <W(SA)>
2.196

> <Valence>
4.643

> <Coulomb>
69.388

> <VdW>
0.311

> <VdW6>
-8.574

> <VdW12>
8.885

> <Bond>
0.266

> <Angle>
1.427

> <Pdih>
2.951

> <Idih>
0.000

> <Tether>
0.000

$$$$
VeraChem MOL file


 26 25  0  0  0  0  0  0  0  0999 V2000     
   19.5267   19.2993   25.5504 N   0  3  0  0  0  0  0  0  0  0  0  0
   19.4144   18.5307   26.2296 H   0  0  0  0  0  0  0  0  0  0  0  0
   18.6734   19.2836   24.9722 H   0  0  0  0  0  0  0  0  0  0  0  0
   20.7480   19.0566   24.6851 C   0  0  0  0  0  0  0  0  0  0  0  0
   21.6212   19.0700   25.3423 H   0  0  0  0  0  0  0  0  0  0  0  0
   20.8363   19.8935   23.9915 H   0  0  0  0  0  0  0  0  0  0  0  0
   20.7145   17.7191   23.9143 C   0  0  0  0  0  0  0  0  0  0  0  0
   21.6826   17.5582   23.4219 H   0  0  0  0  0  0  0  0  0  0  0  0
   20.6120   16.9072   24.6465 H   0  0  0  0  0  0  0  0  0  0  0  0
   19.5720   17.6004   22.8698 C   0  0  0  0  0  0  0  0  0  0  0  0
   18.6386   18.0208   23.2656 H   0  0  0  0  0  0  0  0  0  0  0  0
   19.3678   16.5318   22.7150 H   0  0  0  0  0  0  0  0  0  0  0  0
   19.8827   18.2169   21.4808 C   0  0  0  0  0  0  0  0  0  0  0  0
   20.7570   17.7150   21.0437 H   0  0  0  0  0  0  0  0  0  0  0  0
   19.0391   17.9924   20.8134 H   0  0  0  0  0  0  0  0  0  0  0  0
   20.1192   19.7449   21.4892 C   0  0  0  0  0  0  0  0  0  0  0  0
   21.0624   19.9740   22.0013 H   0  0  0  0  0  0  0  0  0  0  0  0
   19.3147   20.2461   22.0452 H   0  0  0  0  0  0  0  0  0  0  0  0
   20.1862   20.3186   20.0576 C   0  0  0  0  0  0  0  0  0  0  0  0
   19.2454   20.1477   19.5183 H   0  0  0  0  0  0  0  0  0  0  0  0
   20.9986   19.8539   19.4838 H   0  0  0  0  0  0  0  0  0  0  0  0
   20.3675   21.4010   20.0820 H   0  0  0  0  0  0  0  0  0  0  0  0
   19.6588   20.6343   26.2698 C   0  0  0  0  0  0  0  0  0  0  0  0
   19.7438   21.4338   25.5307 H   0  0  0  0  0  0  0  0  0  0  0  0
   18.7737   20.7967   26.8889 H   0  0  0  0  0  0  0  0  0  0  0  0
   20.5510   20.6159   26.8996 H   0  0  0  0  0  0  0  0  0  0  0  0
  1  2  1  0  0  0  0
  1  3  1  0  0  0  0
  1  4  1  0  0  0  0
  4  5  1  0  0  0  0
  4  6  1  0  0  0  0
  4  7  1  0  0  0  0
  7  8  1  0  0  0  0
  7  9  1  0  0  0  0
  7 10  1  0  0  0  0
 10 11  1  0  0  0  0
 10 12  1  0  0  0  0
 10 13  1  0  0  0  0
 13 14  1  0  0  0  0
 13 15  1  0  0  0  0
 13 16  1  0  0  0  0
 16 17  1  0  0  0  0
 16 18  1  0  0  0  0
 16 19  1  0  0  0  0
 19 20  1  0  0  0  0
 19 21  1  0  0  0  0
 19 22  1  0  0  0  0
  1 23  1  0  0  0  0
 23 24  1  0  0  0  0
 23 25  1  0  0  0  0
 23 26  1  0  0  0  0
M  END
> <VM2 Rank>
133

> <Conf_Id>
1491

> <Probability>
0.02

> <Sum Probability>
99.55

> <Delta G>
3.533

> <G>
78.999

> <E>
46.507

> <-TS>
32.491

> <U+W>
25.046

> <U>
74.583

> <W>
-49.538

> <W(PB)>
-51.785

> <W(SA)>
2.248

> <Valence>
4.290

> <Coulomb>
70.230

> <VdW>
0.064

> <VdW6>
-7.673

> <VdW12>
7.737

> <Bond>
0.226

> <Angle>
1.376

> <Pdih>
2.688

> <Idih>
0.000

> <Tether>
0.000

$$$$
VeraChem MOL file


 26 25  0  0  0  0  0  0  0  0999 V2000     
   20.3599   19.3837   25.5796 N   0  3  0  0  0  0  0  0  0  0  0  0
   21.2373   19.5433   25.0625 H   0  0  0  0  0  0  0  0  0  0  0  0
   20.5761   18.6484   26.2705 H   0  0  0  0  0  0  0  0  0  0  0  0
   19.2754   18.9075   24.6329 C   0  0  0  0  0  0  0  0  0  0  0  0
   18.3734   18.7413   25.2275 H   0  0  0  0  0  0  0  0  0  0  0  0
   19.0699   19.7146   23.9289 H   0  0  0  0  0  0  0  0  0  0  0  0
   19.6296   17.6092   23.8760 C   0  0  0  0  0  0  0  0  0  0  0  0
   19.8409   16.8291   24.6193 H   0  0  0  0  0  0  0  0  0  0  0  0
   18.7502   17.2614   23.3181 H   0  0  0  0  0  0  0  0  0  0  0  0
   20.8431   17.7288   22.9148 C   0  0  0  0  0  0  0  0  0  0  0  0
   21.2670   16.7237   22.7822 H   0  0  0  0  0  0  0  0  0  0  0  0
   21.6436   18.3244   23.3721 H   0  0  0  0  0  0  0  0  0  0  0  0
   20.5135   18.2807   21.5032 C   0  0  0  0  0  0  0  0  0  0  0  0
   21.4296   18.2340   20.8982 H   0  0  0  0  0  0  0  0  0  0  0  0
   19.7899   17.6174   21.0095 H   0  0  0  0  0  0  0  0  0  0  0  0
   19.9765   19.7305   21.4843 C   0  0  0  0  0  0  0  0  0  0  0  0
   20.6237   20.3783   22.0918 H   0  0  0  0  0  0  0  0  0  0  0  0
   18.9731   19.7630   21.9274 H   0  0  0  0  0  0  0  0  0  0  0  0
   19.8967   20.2895   20.0476 C   0  0  0  0  0  0  0  0  0  0  0  0
   19.5015   21.3136   20.0515 H   0  0  0  0  0  0  0  0  0  0  0  0
   19.2357   19.6759   19.4215 H   0  0  0  0  0  0  0  0  0  0  0  0
   20.8881   20.3137   19.5767 H   0  0  0  0  0  0  0  0  0  0  0  0
   19.9134   20.6601   26.2786 C   0  0  0  0  0  0  0  0  0  0  0  0
   19.0012   20.4591   26.8447 H   0  0  0  0  0  0  0  0  0  0  0  0
   20.7026   20.9921   26.9568 H   0  0  0  0  0  0  0  0  0  0  0  0
   19.7217   21.4316   25.5296 H   0  0  0  0  0  0  0  0  0  0  0  0
  1  2  1  0  0  0  0
  1  3  1  0  0  0  0
  1  4  1  0  0  0  0
  4  5  1  0  0  0  0
  4  6  1  0  0  0  0
  4  7  1  0  0  0  0
  7  8  1  0  0  0  0
  7  9  1  0  0  0  0
  7 10  1  0  0  0  0
 10 11  1  0  0  0  0
 10 12  1  0  0  0  0
 10 13  1  0  0  0  0
 13 14  1  0  0  0  0
 13 15  1  0  0  0  0
 13 16  1  0  0  0  0
 16 17  1  0  0  0  0
 16 18  1  0  0  0  0
 16 19  1  0  0  0  0
 19 20  1  0  0  0  0
 19 21  1  0  0  0  0
 19 22  1  0  0  0  0
  1 23  1  0  0  0  0
 23 24  1  0  0  0  0
 23 25  1  0  0  0  0
 23 26  1  0  0  0  0
M  END
> <VM2 Rank>
134

> <Conf_Id>
1619

> <Probability>
0.02

> <Sum Probability>
99.57

> <Delta G>
3.543

> <G>
79.009

> <E>
46.519

> <-TS>
32.490

> <U+W>
25.057

> <U>
74.584

> <W>
-49.526

> <W(PB)>
-51.786

> <W(SA)>
2.260

> <Valence>
4.289

> <Coulomb>
70.230

> <VdW>
0.064

> <VdW6>
-7.673

> <VdW12>
7.737

> <Bond>
0.226

> <Angle>
1.377

> <Pdih>
2.687

> <Idih>
0.000

> <Tether>
0.000

$$$$
VeraChem MOL file


 26 25  0  0  0  0  0  0  0  0999 V2000     
   19.2783   18.4942   25.3424 N   0  3  0  0  0  0  0  0  0  0  0  0
   18.9386   17.6394   25.8112 H   0  0  0  0  0  0  0  0  0  0  0  0
   18.7568   18.5418   24.4561 H   0  0  0  0  0  0  0  0  0  0  0  0
   20.7684   18.3639   25.0686 C   0  0  0  0  0  0  0  0  0  0  0  0
   20.9415   17.3827   24.6194 H   0  0  0  0  0  0  0  0  0  0  0  0
   21.2712   18.3795   26.0389 H   0  0  0  0  0  0  0  0  0  0  0  0
   21.3877   19.4516   24.1602 C   0  0  0  0  0  0  0  0  0  0  0  0
   21.0723   20.4510   24.4852 H   0  0  0  0  0  0  0  0  0  0  0  0
   22.4755   19.4224   24.3067 H   0  0  0  0  0  0  0  0  0  0  0  0
   21.1100   19.2652   22.6464 C   0  0  0  0  0  0  0  0  0  0  0  0
   21.4675   18.2753   22.3326 H   0  0  0  0  0  0  0  0  0  0  0  0
   21.7157   19.9989   22.0967 H   0  0  0  0  0  0  0  0  0  0  0  0
   19.6249   19.4417   22.2417 C   0  0  0  0  0  0  0  0  0  0  0  0
   19.0328   18.5937   22.6065 H   0  0  0  0  0  0  0  0  0  0  0  0
   19.2222   20.3442   22.7221 H   0  0  0  0  0  0  0  0  0  0  0  0
   19.4199   19.5654   20.7125 C   0  0  0  0  0  0  0  0  0  0  0  0
   19.9769   20.4327   20.3314 H   0  0  0  0  0  0  0  0  0  0  0  0
   18.3588   19.7707   20.5131 H   0  0  0  0  0  0  0  0  0  0  0  0
   19.8383   18.2968   19.9347 C   0  0  0  0  0  0  0  0  0  0  0  0
   19.5996   18.4034   18.8686 H   0  0  0  0  0  0  0  0  0  0  0  0
   19.3097   17.4109   20.3098 H   0  0  0  0  0  0  0  0  0  0  0  0
   20.9170   18.1130   20.0145 H   0  0  0  0  0  0  0  0  0  0  0  0
   18.9803   19.7112   26.2104 C   0  0  0  0  0  0  0  0  0  0  0  0
   19.5342   19.6271   27.1480 H   0  0  0  0  0  0  0  0  0  0  0  0
   19.2827   20.6168   25.6811 H   0  0  0  0  0  0  0  0  0  0  0  0
   17.9086   19.7482   26.4177 H   0  0  0  0  0  0  0  0  0  0  0  0
  1  2  1  0  0  0  0
  1  3  1  0  0  0  0
  1  4  1  0  0  0  0
  4  5  1  0  0  0  0
  4  6  1  0  0  0  0
  4  7  1  0  0  0  0
  7  8  1  0  0  0  0
  7  9  1  0  0  0  0
  7 10  1  0  0  0  0
 10 11  1  0  0  0  0
 10 12  1  0  0  0  0
 10 13  1  0  0  0  0
 13 14  1  0  0  0  0
 13 15  1  0  0  0  0
 13 16  1  0  0  0  0
 16 17  1  0  0  0  0
 16 18  1  0  0  0  0
 16 19  1  0  0  0  0
 19 20  1  0  0  0  0
 19 21  1  0  0  0  0
 19 22  1  0  0  0  0
  1 23  1  0  0  0  0
 23 24  1  0  0  0  0
 23 25  1  0  0  0  0
 23 26  1  0  0  0  0
M  END
> <VM2 Rank>
135

> <Conf_Id>
816

> <Probability>
0.02

> <Sum Probability>
99.59

> <Delta G>
3.616

> <G>
79.082

> <E>
46.578

> <-TS>
32.504

> <U+W>
25.116

> <U>
74.899

> <W>
-49.783

> <W(PB)>
-51.980

> <W(SA)>
2.197

> <Valence>
4.085

> <Coulomb>
70.542

> <VdW>
0.272

> <VdW6>
-8.421

> <VdW12>
8.693

> <Bond>
0.258

> <Angle>
1.367

> <Pdih>
2.460

> <Idih>
0.000

> <Tether>
0.000

$$$$
VeraChem MOL file


 26 25  0  0  0  0  0  0  0  0999 V2000     
   19.9670   18.9640   26.2816 N   0  3  0  0  0  0  0  0  0  0  0  0
   20.2607   19.4737   27.1301 H   0  0  0  0  0  0  0  0  0  0  0  0
   20.3035   17.9988   26.4213 H   0  0  0  0  0  0  0  0  0  0  0  0
   20.6320   19.5812   25.0626 C   0  0  0  0  0  0  0  0  0  0  0  0
   21.6967   19.6807   25.2889 H   0  0  0  0  0  0  0  0  0  0  0  0
   20.2194   20.5840   24.9259 H   0  0  0  0  0  0  0  0  0  0  0  0
   20.4702   18.7663   23.7634 C   0  0  0  0  0  0  0  0  0  0  0  0
   20.8473   17.7480   23.9260 H   0  0  0  0  0  0  0  0  0  0  0  0
   19.4068   18.6743   23.5188 H   0  0  0  0  0  0  0  0  0  0  0  0
   21.2392   19.4207   22.5905 C   0  0  0  0  0  0  0  0  0  0  0  0
   22.3032   19.4642   22.8621 H   0  0  0  0  0  0  0  0  0  0  0  0
   20.9179   20.4629   22.4561 H   0  0  0  0  0  0  0  0  0  0  0  0
   21.1048   18.6456   21.2535 C   0  0  0  0  0  0  0  0  0  0  0  0
   22.0572   18.7305   20.7119 H   0  0  0  0  0  0  0  0  0  0  0  0
   20.9697   17.5724   21.4462 H   0  0  0  0  0  0  0  0  0  0  0  0
   19.9867   19.1631   20.3124 C   0  0  0  0  0  0  0  0  0  0  0  0
   20.0292   18.5918   19.3744 H   0  0  0  0  0  0  0  0  0  0  0  0
   20.1888   20.2085   20.0401 H   0  0  0  0  0  0  0  0  0  0  0  0
   18.5604   19.0523   20.8946 C   0  0  0  0  0  0  0  0  0  0  0  0
   17.8142   19.3097   20.1319 H   0  0  0  0  0  0  0  0  0  0  0  0
   18.4185   19.7418   21.7358 H   0  0  0  0  0  0  0  0  0  0  0  0
   18.3503   18.0312   21.2382 H   0  0  0  0  0  0  0  0  0  0  0  0
   18.4477   18.9968   26.1586 C   0  0  0  0  0  0  0  0  0  0  0  0
   18.1204   20.0308   26.0299 H   0  0  0  0  0  0  0  0  0  0  0  0
   18.1412   18.4007   25.2967 H   0  0  0  0  0  0  0  0  0  0  0  0
   18.0069   18.5810   27.0674 H   0  0  0  0  0  0  0  0  0  0  0  0
  1  2  1  0  0  0  0
  1  3  1  0  0  0  0
  1  4  1  0  0  0  0
  4  5  1  0  0  0  0
  4  6  1  0  0  0  0
  4  7  1  0  0  0  0
  7  8  1  0  0  0  0
  7  9  1  0  0  0  0
  7 10  1  0  0  0  0
 10 11  1  0  0  0  0
 10 12  1  0  0  0  0
 10 13  1  0  0  0  0
 13 14  1  0  0  0  0
 13 15  1  0  0  0  0
 13 16  1  0  0  0  0
 16 17  1  0  0  0  0
 16 18  1  0  0  0  0
 16 19  1  0  0  0  0
 19 20  1  0  0  0  0
 19 21  1  0  0  0  0
 19 22  1  0  0  0  0
  1 23  1  0  0  0  0
 23 24  1  0  0  0  0
 23 25  1  0  0  0  0
 23 26  1  0  0  0  0
M  END
> <VM2 Rank>
136

> <Conf_Id>
1007

> <Probability>
0.02

> <Sum Probability>
99.60

> <Delta G>
3.639

> <G>
79.105

> <E>
46.421

> <-TS>
32.684

> <U+W>
24.959

> <U>
74.399

> <W>
-49.440

> <W(PB)>
-51.680

> <W(SA)>
2.240

> <Valence>
4.963

> <Coulomb>
68.942

> <VdW>
0.494

> <VdW6>
-7.590

> <VdW12>
8.083

> <Bond>
0.249

> <Angle>
1.244

> <Pdih>
3.470

> <Idih>
0.000

> <Tether>
0.000

$$$$
VeraChem MOL file


 26 25  0  0  0  0  0  0  0  0999 V2000     
   20.2400   19.2144   25.8380 N   0  3  0  0  0  0  0  0  0  0  0  0
   21.2486   19.0016   25.8835 H   0  0  0  0  0  0  0  0  0  0  0  0
   19.7814   18.4968   26.4207 H   0  0  0  0  0  0  0  0  0  0  0  0
   19.7491   19.1193   24.4078 C   0  0  0  0  0  0  0  0  0  0  0  0
   20.2552   19.8959   23.8328 H   0  0  0  0  0  0  0  0  0  0  0  0
   18.6781   19.3370   24.4071 H   0  0  0  0  0  0  0  0  0  0  0  0
   19.9947   17.7377   23.7705 C   0  0  0  0  0  0  0  0  0  0  0  0
   21.0632   17.4870   23.8048 H   0  0  0  0  0  0  0  0  0  0  0  0
   19.4800   16.9846   24.3820 H   0  0  0  0  0  0  0  0  0  0  0  0
   19.4704   17.6318   22.3157 C   0  0  0  0  0  0  0  0  0  0  0  0
   18.5091   18.1539   22.2183 H   0  0  0  0  0  0  0  0  0  0  0  0
   19.2485   16.5746   22.1145 H   0  0  0  0  0  0  0  0  0  0  0  0
   20.4671   18.1090   21.2243 C   0  0  0  0  0  0  0  0  0  0  0  0
   21.3804   17.5014   21.2874 H   0  0  0  0  0  0  0  0  0  0  0  0
   20.0335   17.8897   20.2388 H   0  0  0  0  0  0  0  0  0  0  0  0
   20.8631   19.6060   21.2641 C   0  0  0  0  0  0  0  0  0  0  0  0
   21.5715   19.7985   20.4463 H   0  0  0  0  0  0  0  0  0  0  0  0
   21.4129   19.8302   22.1868 H   0  0  0  0  0  0  0  0  0  0  0  0
   19.6609   20.5654   21.1083 C   0  0  0  0  0  0  0  0  0  0  0  0
   18.9581   20.4775   21.9452 H   0  0  0  0  0  0  0  0  0  0  0  0
   19.1127   20.3602   20.1797 H   0  0  0  0  0  0  0  0  0  0  0  0
   20.0031   21.6077   21.0716 H   0  0  0  0  0  0  0  0  0  0  0  0
   19.9627   20.6065   26.3883 C   0  0  0  0  0  0  0  0  0  0  0  0
   18.8874   20.7959   26.3610 H   0  0  0  0  0  0  0  0  0  0  0  0
   20.3210   20.6622   27.4187 H   0  0  0  0  0  0  0  0  0  0  0  0
   20.4845   21.3453   25.7760 H   0  0  0  0  0  0  0  0  0  0  0  0
  1  2  1  0  0  0  0
  1  3  1  0  0  0  0
  1  4  1  0  0  0  0
  4  5  1  0  0  0  0
  4  6  1  0  0  0  0
  4  7  1  0  0  0  0
  7  8  1  0  0  0  0
  7  9  1  0  0  0  0
  7 10  1  0  0  0  0
 10 11  1  0  0  0  0
 10 12  1  0  0  0  0
 10 13  1  0  0  0  0
 13 14  1  0  0  0  0
 13 15  1  0  0  0  0
 13 16  1  0  0  0  0
 16 17  1  0  0  0  0
 16 18  1  0  0  0  0
 16 19  1  0  0  0  0
 19 20  1  0  0  0  0
 19 21  1  0  0  0  0
 19 22  1  0  0  0  0
  1 23  1  0  0  0  0
 23 24  1  0  0  0  0
 23 25  1  0  0  0  0
 23 26  1  0  0  0  0
M  END
> <VM2 Rank>
137

> <Conf_Id>
1632

> <Probability>
0.02

> <Sum Probability>
99.62

> <Delta G>
3.639

> <G>
79.105

> <E>
46.122

> <-TS>
32.984

> <U+W>
24.660

> <U>
74.250

> <W>
-49.591

> <W(PB)>
-51.809

> <W(SA)>
2.218

> <Valence>
4.607

> <Coulomb>
69.758

> <VdW>
-0.115

> <VdW6>
-8.153

> <VdW12>
8.038

> <Bond>
0.239

> <Angle>
1.671

> <Pdih>
2.697

> <Idih>
0.000

> <Tether>
0.000

$$$$
VeraChem MOL file


 26 25  0  0  0  0  0  0  0  0999 V2000     
   20.5577   18.5047   26.1174 N   0  3  0  0  0  0  0  0  0  0  0  0
   21.2624   18.6996   26.8463 H   0  0  0  0  0  0  0  0  0  0  0  0
   20.7707   17.5499   25.7900 H   0  0  0  0  0  0  0  0  0  0  0  0
   20.7163   19.4986   24.9788 C   0  0  0  0  0  0  0  0  0  0  0  0
   21.7752   19.5160   24.7086 H   0  0  0  0  0  0  0  0  0  0  0  0
   20.4464   20.4883   25.3557 H   0  0  0  0  0  0  0  0  0  0  0  0
   19.8846   19.1713   23.7220 C   0  0  0  0  0  0  0  0  0  0  0  0
   20.1197   18.1539   23.3908 H   0  0  0  0  0  0  0  0  0  0  0  0
   18.8163   19.1841   23.9734 H   0  0  0  0  0  0  0  0  0  0  0  0
   20.1553   20.1901   22.5888 C   0  0  0  0  0  0  0  0  0  0  0  0
   21.2290   20.2315   22.3589 H   0  0  0  0  0  0  0  0  0  0  0  0
   19.8857   21.1896   22.9578 H   0  0  0  0  0  0  0  0  0  0  0  0
   19.3445   19.9092   21.2964 C   0  0  0  0  0  0  0  0  0  0  0  0
   18.3894   19.4251   21.5425 H   0  0  0  0  0  0  0  0  0  0  0  0
   19.0781   20.8743   20.8436 H   0  0  0  0  0  0  0  0  0  0  0  0
   20.0990   19.0840   20.2225 C   0  0  0  0  0  0  0  0  0  0  0  0
   21.0002   19.6277   19.9058 H   0  0  0  0  0  0  0  0  0  0  0  0
   19.4615   19.0082   19.3305 H   0  0  0  0  0  0  0  0  0  0  0  0
   20.4919   17.6596   20.6719 C   0  0  0  0  0  0  0  0  0  0  0  0
   21.2646   17.6860   21.4499 H   0  0  0  0  0  0  0  0  0  0  0  0
   20.8989   17.0897   19.8266 H   0  0  0  0  0  0  0  0  0  0  0  0
   19.6229   17.1117   21.0585 H   0  0  0  0  0  0  0  0  0  0  0  0
   19.1587   18.5723   26.7193 C   0  0  0  0  0  0  0  0  0  0  0  0
   18.4238   18.3013   25.9586 H   0  0  0  0  0  0  0  0  0  0  0  0
   19.0957   17.8728   27.5559 H   0  0  0  0  0  0  0  0  0  0  0  0
   18.9690   19.5880   27.0731 H   0  0  0  0  0  0  0  0  0  0  0  0
  1  2  1  0  0  0  0
  1  3  1  0  0  0  0
  1  4  1  0  0  0  0
  4  5  1  0  0  0  0
  4  6  1  0  0  0  0
  4  7  1  0  0  0  0
  7  8  1  0  0  0  0
  7  9  1  0  0  0  0
  7 10  1  0  0  0  0
 10 11  1  0  0  0  0
 10 12  1  0  0  0  0
 10 13  1  0  0  0  0
 13 14  1  0  0  0  0
 13 15  1  0  0  0  0
 13 16  1  0  0  0  0
 16 17  1  0  0  0  0
 16 18  1  0  0  0  0
 16 19  1  0  0  0  0
 19 20  1  0  0  0  0
 19 21  1  0  0  0  0
 19 22  1  0  0  0  0
  1 23  1  0  0  0  0
 23 24  1  0  0  0  0
 23 25  1  0  0  0  0
 23 26  1  0  0  0  0
M  END
> <VM2 Rank>
138

> <Conf_Id>
832

> <Probability>
0.02

> <Sum Probability>
99.63

> <Delta G>
3.648

> <G>
79.114

> <E>
46.441

> <-TS>
32.673

> <U+W>
24.979

> <U>
74.461

> <W>
-49.482

> <W(PB)>
-51.720

> <W(SA)>
2.238

> <Valence>
4.968

> <Coulomb>
68.965

> <VdW>
0.528

> <VdW6>
-7.526

> <VdW12>
8.054

> <Bond>
0.248

> <Angle>
1.260

> <Pdih>
3.461

> <Idih>
0.000

> <Tether>
0.000

$$$$
VeraChem MOL file


 26 25  0  0  0  0  0  0  0  0999 V2000     
   19.6596   19.1557   25.8175 N   0  3  0  0  0  0  0  0  0  0  0  0
   20.2104   18.5401   26.4359 H   0  0  0  0  0  0  0  0  0  0  0  0
   18.7132   18.7452   25.7937 H   0  0  0  0  0  0  0  0  0  0  0  0
   20.2586   19.1708   24.4259 C   0  0  0  0  0  0  0  0  0  0  0  0
   21.2618   19.5982   24.4986 H   0  0  0  0  0  0  0  0  0  0  0  0
   19.6490   19.8346   23.8113 H   0  0  0  0  0  0  0  0  0  0  0  0
   20.3395   17.7725   23.7827 C   0  0  0  0  0  0  0  0  0  0  0  0
   20.9501   17.1333   24.4341 H   0  0  0  0  0  0  0  0  0  0  0  0
   19.3429   17.3131   23.7438 H   0  0  0  0  0  0  0  0  0  0  0  0
   20.9750   17.7839   22.3690 C   0  0  0  0  0  0  0  0  0  0  0  0
   21.4174   16.7939   22.1914 H   0  0  0  0  0  0  0  0  0  0  0  0
   21.8168   18.4884   22.3355 H   0  0  0  0  0  0  0  0  0  0  0  0
   19.9820   18.0599   21.2072 C   0  0  0  0  0  0  0  0  0  0  0  0
   20.5186   17.9387   20.2560 H   0  0  0  0  0  0  0  0  0  0  0  0
   19.2065   17.2816   21.2104 H   0  0  0  0  0  0  0  0  0  0  0  0
   19.2929   19.4472   21.2084 C   0  0  0  0  0  0  0  0  0  0  0  0
   18.6461   19.5505   22.0888 H   0  0  0  0  0  0  0  0  0  0  0  0
   18.6193   19.5000   20.3416 H   0  0  0  0  0  0  0  0  0  0  0  0
   20.2869   20.6287   21.1303 C   0  0  0  0  0  0  0  0  0  0  0  0
   19.7466   21.5818   21.0623 H   0  0  0  0  0  0  0  0  0  0  0  0
   20.9287   20.5438   20.2439 H   0  0  0  0  0  0  0  0  0  0  0  0
   20.9327   20.6771   22.0151 H   0  0  0  0  0  0  0  0  0  0  0  0
   19.6137   20.5712   26.3760 C   0  0  0  0  0  0  0  0  0  0  0  0
   20.6286   20.9720   26.4227 H   0  0  0  0  0  0  0  0  0  0  0  0
   18.9990   21.1951   25.7234 H   0  0  0  0  0  0  0  0  0  0  0  0
   19.1802   20.5468   27.3783 H   0  0  0  0  0  0  0  0  0  0  0  0
  1  2  1  0  0  0  0
  1  3  1  0  0  0  0
  1  4  1  0  0  0  0
  4  5  1  0  0  0  0
  4  6  1  0  0  0  0
  4  7  1  0  0  0  0
  7  8  1  0  0  0  0
  7  9  1  0  0  0  0
  7 10  1  0  0  0  0
 10 11  1  0  0  0  0
 10 12  1  0  0  0  0
 10 13  1  0  0  0  0
 13 14  1  0  0  0  0
 13 15  1  0  0  0  0
 13 16  1  0  0  0  0
 16 17  1  0  0  0  0
 16 18  1  0  0  0  0
 16 19  1  0  0  0  0
 19 20  1  0  0  0  0
 19 21  1  0  0  0  0
 19 22  1  0  0  0  0
  1 23  1  0  0  0  0
 23 24  1  0  0  0  0
 23 25  1  0  0  0  0
 23 26  1  0  0  0  0
M  END
> <VM2 Rank>
139

> <Conf_Id>
848

> <Probability>
0.02

> <Sum Probability>
99.65

> <Delta G>
3.649

> <G>
79.115

> <E>
46.131

> <-TS>
32.984

> <U+W>
24.669

> <U>
74.250

> <W>
-49.581

> <W(PB)>
-51.813

> <W(SA)>
2.232

> <Valence>
4.607

> <Coulomb>
69.758

> <VdW>
-0.115

> <VdW6>
-8.152

> <VdW12>
8.037

> <Bond>
0.239

> <Angle>
1.671

> <Pdih>
2.697

> <Idih>
0.000

> <Tether>
0.000

$$$$
VeraChem MOL file


 26 25  0  0  0  0  0  0  0  0999 V2000     
   19.4393   18.6199   26.0999 N   0  3  0  0  0  0  0  0  0  0  0  0
   18.8855   17.8112   25.7778 H   0  0  0  0  0  0  0  0  0  0  0  0
   18.9470   18.9618   26.9405 H   0  0  0  0  0  0  0  0  0  0  0  0
   19.4478   19.7074   25.0385 C   0  0  0  0  0  0  0  0  0  0  0  0
   20.0711   20.5280   25.4025 H   0  0  0  0  0  0  0  0  0  0  0  0
   18.4233   20.0762   24.9434 H   0  0  0  0  0  0  0  0  0  0  0  0
   19.9447   19.2461   23.6533 C   0  0  0  0  0  0  0  0  0  0  0  0
   20.9858   18.9067   23.7261 H   0  0  0  0  0  0  0  0  0  0  0  0
   19.3403   18.3905   23.3281 H   0  0  0  0  0  0  0  0  0  0  0  0
   19.8436   20.3840   22.6124 C   0  0  0  0  0  0  0  0  0  0  0  0
   20.3367   21.2797   23.0154 H   0  0  0  0  0  0  0  0  0  0  0  0
   18.7883   20.6552   22.4696 H   0  0  0  0  0  0  0  0  0  0  0  0
   20.4822   20.0552   21.2379 C   0  0  0  0  0  0  0  0  0  0  0  0
   20.3864   20.9500   20.6073 H   0  0  0  0  0  0  0  0  0  0  0  0
   21.5623   19.8898   21.3527 H   0  0  0  0  0  0  0  0  0  0  0  0
   19.8342   18.8640   20.4855 C   0  0  0  0  0  0  0  0  0  0  0  0
   19.8596   19.0763   19.4074 H   0  0  0  0  0  0  0  0  0  0  0  0
   18.7713   18.7771   20.7506 H   0  0  0  0  0  0  0  0  0  0  0  0
   20.5598   17.5185   20.7221 C   0  0  0  0  0  0  0  0  0  0  0  0
   21.6062   17.5749   20.3952 H   0  0  0  0  0  0  0  0  0  0  0  0
   20.0760   16.7161   20.1502 H   0  0  0  0  0  0  0  0  0  0  0  0
   20.5520   17.2240   21.7772 H   0  0  0  0  0  0  0  0  0  0  0  0
   20.8565   18.1949   26.4674 C   0  0  0  0  0  0  0  0  0  0  0  0
   20.8100   17.4415   27.2569 H   0  0  0  0  0  0  0  0  0  0  0  0
   21.3478   17.7742   25.5877 H   0  0  0  0  0  0  0  0  0  0  0  0
   21.4118   19.0661   26.8214 H   0  0  0  0  0  0  0  0  0  0  0  0
  1  2  1  0  0  0  0
  1  3  1  0  0  0  0
  1  4  1  0  0  0  0
  4  5  1  0  0  0  0
  4  6  1  0  0  0  0
  4  7  1  0  0  0  0
  7  8  1  0  0  0  0
  7  9  1  0  0  0  0
  7 10  1  0  0  0  0
 10 11  1  0  0  0  0
 10 12  1  0  0  0  0
 10 13  1  0  0  0  0
 13 14  1  0  0  0  0
 13 15  1  0  0  0  0
 13 16  1  0  0  0  0
 16 17  1  0  0  0  0
 16 18  1  0  0  0  0
 16 19  1  0  0  0  0
 19 20  1  0  0  0  0
 19 21  1  0  0  0  0
 19 22  1  0  0  0  0
  1 23  1  0  0  0  0
 23 24  1  0  0  0  0
 23 25  1  0  0  0  0
 23 26  1  0  0  0  0
M  END
> <VM2 Rank>
140

> <Conf_Id>
257

> <Probability>
0.02

> <Sum Probability>
99.66

> <Delta G>
3.654

> <G>
79.120

> <E>
46.448

> <-TS>
32.671

> <U+W>
24.986

> <U>
74.475

> <W>
-49.489

> <W(PB)>
-51.737

> <W(SA)>
2.248

> <Valence>
4.984

> <Coulomb>
68.965

> <VdW>
0.526

> <VdW6>
-7.550

> <VdW12>
8.076

> <Bond>
0.247

> <Angle>
1.294

> <Pdih>
3.442

> <Idih>
0.000

> <Tether>
0.000

$$$$
VeraChem MOL file


 26 25  0  0  0  0  0  0  0  0999 V2000     
   19.4739   18.3932   26.0789 N   0  3  0  0  0  0  0  0  0  0  0  0
   19.4833   17.4173   25.7443 H   0  0  0  0  0  0  0  0  0  0  0  0
   18.6949   18.4353   26.7552 H   0  0  0  0  0  0  0  0  0  0  0  0
   19.1966   19.3422   24.9249 C   0  0  0  0  0  0  0  0  0  0  0  0
   19.2325   20.3633   25.3126 H   0  0  0  0  0  0  0  0  0  0  0  0
   18.1779   19.1457   24.5810 H   0  0  0  0  0  0  0  0  0  0  0  0
   20.1635   19.1999   23.7319 C   0  0  0  0  0  0  0  0  0  0  0  0
   21.1867   19.4276   24.0575 H   0  0  0  0  0  0  0  0  0  0  0  0
   20.1639   18.1584   23.3923 H   0  0  0  0  0  0  0  0  0  0  0  0
   19.7716   20.1506   22.5752 C   0  0  0  0  0  0  0  0  0  0  0  0
   19.8062   21.1813   22.9550 H   0  0  0  0  0  0  0  0  0  0  0  0
   18.7306   19.9748   22.2704 H   0  0  0  0  0  0  0  0  0  0  0  0
   20.7110   20.0495   21.3449 C   0  0  0  0  0  0  0  0  0  0  0  0
   20.8071   21.0519   20.9050 H   0  0  0  0  0  0  0  0  0  0  0  0
   21.7249   19.7675   21.6606 H   0  0  0  0  0  0  0  0  0  0  0  0
   20.2167   19.0963   20.2266 C   0  0  0  0  0  0  0  0  0  0  0  0
   20.9173   19.1579   19.3820 H   0  0  0  0  0  0  0  0  0  0  0  0
   19.2485   19.4480   19.8437 H   0  0  0  0  0  0  0  0  0  0  0  0
   20.0906   17.6185   20.6575 C   0  0  0  0  0  0  0  0  0  0  0  0
   21.0234   17.2555   21.1078 H   0  0  0  0  0  0  0  0  0  0  0  0
   19.8678   16.9841   19.7899 H   0  0  0  0  0  0  0  0  0  0  0  0
   19.2761   17.4819   21.3793 H   0  0  0  0  0  0  0  0  0  0  0  0
   20.7841   18.7398   26.7772 C   0  0  0  0  0  0  0  0  0  0  0  0
   20.7376   19.7703   27.1360 H   0  0  0  0  0  0  0  0  0  0  0  0
   20.9292   18.0618   27.6211 H   0  0  0  0  0  0  0  0  0  0  0  0
   21.6102   18.6296   26.0719 H   0  0  0  0  0  0  0  0  0  0  0  0
  1  2  1  0  0  0  0
  1  3  1  0  0  0  0
  1  4  1  0  0  0  0
  4  5  1  0  0  0  0
  4  6  1  0  0  0  0
  4  7  1  0  0  0  0
  7  8  1  0  0  0  0
  7  9  1  0  0  0  0
  7 10  1  0  0  0  0
 10 11  1  0  0  0  0
 10 12  1  0  0  0  0
 10 13  1  0  0  0  0
 13 14  1  0  0  0  0
 13 15  1  0  0  0  0
 13 16  1  0  0  0  0
 16 17  1  0  0  0  0
 16 18  1  0  0  0  0
 16 19  1  0  0  0  0
 19 20  1  0  0  0  0
 19 21  1  0  0  0  0
 19 22  1  0  0  0  0
  1 23  1  0  0  0  0
 23 24  1  0  0  0  0
 23 25  1  0  0  0  0
 23 26  1  0  0  0  0
M  END
> <VM2 Rank>
141

> <Conf_Id>
826

> <Probability>
0.01

> <Sum Probability>
99.68

> <Delta G>
3.663

> <G>
79.129

> <E>
46.456

> <-TS>
32.673

> <U+W>
24.994

> <U>
74.461

> <W>
-49.467

> <W(PB)>
-51.713

> <W(SA)>
2.246

> <Valence>
4.969

> <Coulomb>
68.965

> <VdW>
0.528

> <VdW6>
-7.525

> <VdW12>
8.053

> <Bond>
0.248

> <Angle>
1.260

> <Pdih>
3.461

> <Idih>
0.000

> <Tether>
0.000

$$$$
VeraChem MOL file


 26 25  0  0  0  0  0  0  0  0999 V2000     
   20.5853   19.2751   25.4314 N   0  3  0  0  0  0  0  0  0  0  0  0
   21.1104   19.5980   24.6063 H   0  0  0  0  0  0  0  0  0  0  0  0
   21.1224   18.4780   25.8067 H   0  0  0  0  0  0  0  0  0  0  0  0
   19.1973   18.8209   25.0224 C   0  0  0  0  0  0  0  0  0  0  0  0
   18.6392   19.6908   24.6671 H   0  0  0  0  0  0  0  0  0  0  0  0
   18.7068   18.4488   25.9255 H   0  0  0  0  0  0  0  0  0  0  0  0
   19.1794   17.7136   23.9476 C   0  0  0  0  0  0  0  0  0  0  0  0
   19.9418   16.9564   24.1736 H   0  0  0  0  0  0  0  0  0  0  0  0
   18.2128   17.1970   24.0161 H   0  0  0  0  0  0  0  0  0  0  0  0
   19.3413   18.2284   22.4942 C   0  0  0  0  0  0  0  0  0  0  0  0
   18.5308   18.9355   22.2721 H   0  0  0  0  0  0  0  0  0  0  0  0
   19.2027   17.3780   21.8123 H   0  0  0  0  0  0  0  0  0  0  0  0
   20.7105   18.8904   22.1987 C   0  0  0  0  0  0  0  0  0  0  0  0
   20.7863   19.8480   22.7290 H   0  0  0  0  0  0  0  0  0  0  0  0
   21.5148   18.2465   22.5804 H   0  0  0  0  0  0  0  0  0  0  0  0
   20.9555   19.1387   20.6907 C   0  0  0  0  0  0  0  0  0  0  0  0
   20.9157   18.1854   20.1452 H   0  0  0  0  0  0  0  0  0  0  0  0
   21.9753   19.5260   20.5569 H   0  0  0  0  0  0  0  0  0  0  0  0
   19.9559   20.1376   20.0642 C   0  0  0  0  0  0  0  0  0  0  0  0
   20.2215   20.3426   19.0191 H   0  0  0  0  0  0  0  0  0  0  0  0
   19.9603   21.0928   20.6050 H   0  0  0  0  0  0  0  0  0  0  0  0
   18.9325   19.7422   20.0728 H   0  0  0  0  0  0  0  0  0  0  0  0
   20.4830   20.3852   26.4679 C   0  0  0  0  0  0  0  0  0  0  0  0
   19.9385   21.2289   26.0381 H   0  0  0  0  0  0  0  0  0  0  0  0
   19.9510   20.0095   27.3447 H   0  0  0  0  0  0  0  0  0  0  0  0
   21.4883   20.7021   26.7542 H   0  0  0  0  0  0  0  0  0  0  0  0
  1  2  1  0  0  0  0
  1  3  1  0  0  0  0
  1  4  1  0  0  0  0
  4  5  1  0  0  0  0
  4  6  1  0  0  0  0
  4  7  1  0  0  0  0
  7  8  1  0  0  0  0
  7  9  1  0  0  0  0
  7 10  1  0  0  0  0
 10 11  1  0  0  0  0
 10 12  1  0  0  0  0
 10 13  1  0  0  0  0
 13 14  1  0  0  0  0
 13 15  1  0  0  0  0
 13 16  1  0  0  0  0
 16 17  1  0  0  0  0
 16 18  1  0  0  0  0
 16 19  1  0  0  0  0
 19 20  1  0  0  0  0
 19 21  1  0  0  0  0
 19 22  1  0  0  0  0
  1 23  1  0  0  0  0
 23 24  1  0  0  0  0
 23 25  1  0  0  0  0
 23 26  1  0  0  0  0
M  END
> <VM2 Rank>
142

> <Conf_Id>
743

> <Probability>
0.01

> <Sum Probability>
99.69

> <Delta G>
3.706

> <G>
79.172

> <E>
46.700

> <-TS>
32.472

> <U+W>
25.238

> <U>
74.474

> <W>
-49.236

> <W(PB)>
-51.484

> <W(SA)>
2.247

> <Valence>
3.793

> <Coulomb>
70.589

> <VdW>
0.093

> <VdW6>
-7.603

> <VdW12>
7.696

> <Bond>
0.211

> <Angle>
1.117

> <Pdih>
2.465

> <Idih>
0.000

> <Tether>
0.000

$$$$
VeraChem MOL file


 26 25  0  0  0  0  0  0  0  0999 V2000     
   19.3384   19.1498   25.3869 N   0  3  0  0  0  0  0  0  0  0  0  0
   18.9456   18.2589   25.7288 H   0  0  0  0  0  0  0  0  0  0  0  0
   18.8190   19.3678   24.5248 H   0  0  0  0  0  0  0  0  0  0  0  0
   20.8143   18.9838   25.0799 C   0  0  0  0  0  0  0  0  0  0  0  0
   21.3042   18.7102   26.0178 H   0  0  0  0  0  0  0  0  0  0  0  0
   21.2118   19.9498   24.7587 H   0  0  0  0  0  0  0  0  0  0  0  0
   21.1278   17.9100   24.0167 C   0  0  0  0  0  0  0  0  0  0  0  0
   22.1707   17.5958   24.1564 H   0  0  0  0  0  0  0  0  0  0  0  0
   20.5176   17.0144   24.1939 H   0  0  0  0  0  0  0  0  0  0  0  0
   20.9690   18.3926   22.5520 C   0  0  0  0  0  0  0  0  0  0  0  0
   21.3220   17.5919   21.8874 H   0  0  0  0  0  0  0  0  0  0  0  0
   21.6355   19.2488   22.3825 H   0  0  0  0  0  0  0  0  0  0  0  0
   19.5194   18.7701   22.1563 C   0  0  0  0  0  0  0  0  0  0  0  0
   18.8350   17.9757   22.4850 H   0  0  0  0  0  0  0  0  0  0  0  0
   19.2168   19.6894   22.6733 H   0  0  0  0  0  0  0  0  0  0  0  0
   19.3364   18.9754   20.6331 C   0  0  0  0  0  0  0  0  0  0  0  0
   18.2718   19.1523   20.4253 H   0  0  0  0  0  0  0  0  0  0  0  0
   19.6040   18.0532   20.0984 H   0  0  0  0  0  0  0  0  0  0  0  0
   20.1580   20.1582   20.0716 C   0  0  0  0  0  0  0  0  0  0  0  0
   21.2365   19.9751   20.1549 H   0  0  0  0  0  0  0  0  0  0  0  0
   19.9249   21.0894   20.6041 H   0  0  0  0  0  0  0  0  0  0  0  0
   19.9309   20.3138   19.0090 H   0  0  0  0  0  0  0  0  0  0  0  0
   19.1447   20.2503   26.4206 C   0  0  0  0  0  0  0  0  0  0  0  0
   19.5394   21.1885   26.0246 H   0  0  0  0  0  0  0  0  0  0  0  0
   18.0788   20.3588   26.6331 H   0  0  0  0  0  0  0  0  0  0  0  0
   19.6776   19.9814   27.3352 H   0  0  0  0  0  0  0  0  0  0  0  0
  1  2  1  0  0  0  0
  1  3  1  0  0  0  0
  1  4  1  0  0  0  0
  4  5  1  0  0  0  0
  4  6  1  0  0  0  0
  4  7  1  0  0  0  0
  7  8  1  0  0  0  0
  7  9  1  0  0  0  0
  7 10  1  0  0  0  0
 10 11  1  0  0  0  0
 10 12  1  0  0  0  0
 10 13  1  0  0  0  0
 13 14  1  0  0  0  0
 13 15  1  0  0  0  0
 13 16  1  0  0  0  0
 16 17  1  0  0  0  0
 16 18  1  0  0  0  0
 16 19  1  0  0  0  0
 19 20  1  0  0  0  0
 19 21  1  0  0  0  0
 19 22  1  0  0  0  0
  1 23  1  0  0  0  0
 23 24  1  0  0  0  0
 23 25  1  0  0  0  0
 23 26  1  0  0  0  0
M  END
> <VM2 Rank>
143

> <Conf_Id>
1353

> <Probability>
0.01

> <Sum Probability>
99.70

> <Delta G>
3.722

> <G>
79.188

> <E>
46.717

> <-TS>
32.471

> <U+W>
25.255

> <U>
74.474

> <W>
-49.220

> <W(PB)>
-51.463

> <W(SA)>
2.244

> <Valence>
3.792

> <Coulomb>
70.589

> <VdW>
0.093

> <VdW6>
-7.603

> <VdW12>
7.696

> <Bond>
0.211

> <Angle>
1.118

> <Pdih>
2.464

> <Idih>
0.000

> <Tether>
0.000

$$$$
VeraChem MOL file


 26 25  0  0  0  0  0  0  0  0999 V2000     
   19.7288   18.9035   25.9326 N   0  3  0  0  0  0  0  0  0  0  0  0
   20.4436   18.2189   26.2220 H   0  0  0  0  0  0  0  0  0  0  0  0
   19.0155   18.8724   26.6780 H   0  0  0  0  0  0  0  0  0  0  0  0
   19.0940   18.4796   24.6168 C   0  0  0  0  0  0  0  0  0  0  0  0
   18.6222   19.3532   24.1608 H   0  0  0  0  0  0  0  0  0  0  0  0
   18.3018   17.7710   24.8715 H   0  0  0  0  0  0  0  0  0  0  0  0
   20.0422   17.7853   23.6118 C   0  0  0  0  0  0  0  0  0  0  0  0
   20.5447   16.9478   24.1131 H   0  0  0  0  0  0  0  0  0  0  0  0
   19.4325   17.3312   22.8204 H   0  0  0  0  0  0  0  0  0  0  0  0
   21.1078   18.7053   22.9619 C   0  0  0  0  0  0  0  0  0  0  0  0
   21.6976   18.1142   22.2489 H   0  0  0  0  0  0  0  0  0  0  0  0
   21.8255   19.0267   23.7271 H   0  0  0  0  0  0  0  0  0  0  0  0
   20.5363   19.9567   22.2414 C   0  0  0  0  0  0  0  0  0  0  0  0
   20.0701   20.6235   22.9781 H   0  0  0  0  0  0  0  0  0  0  0  0
   21.3721   20.5275   21.8139 H   0  0  0  0  0  0  0  0  0  0  0  0
   19.5087   19.6590   21.1200 C   0  0  0  0  0  0  0  0  0  0  0  0
   19.1642   20.6138   20.6987 H   0  0  0  0  0  0  0  0  0  0  0  0
   18.6161   19.1772   21.5409 H   0  0  0  0  0  0  0  0  0  0  0  0
   20.0811   18.7897   19.9773 C   0  0  0  0  0  0  0  0  0  0  0  0
   19.3451   18.6823   19.1701 H   0  0  0  0  0  0  0  0  0  0  0  0
   20.3366   17.7819   20.3273 H   0  0  0  0  0  0  0  0  0  0  0  0
   20.9840   19.2446   19.5499 H   0  0  0  0  0  0  0  0  0  0  0  0
   20.3090   20.3109   25.8553 C   0  0  0  0  0  0  0  0  0  0  0  0
   21.1041   20.3404   25.1097 H   0  0  0  0  0  0  0  0  0  0  0  0
   19.5166   21.0095   25.5785 H   0  0  0  0  0  0  0  0  0  0  0  0
   20.7138   20.5832   26.8325 H   0  0  0  0  0  0  0  0  0  0  0  0
  1  2  1  0  0  0  0
  1  3  1  0  0  0  0
  1  4  1  0  0  0  0
  4  5  1  0  0  0  0
  4  6  1  0  0  0  0
  4  7  1  0  0  0  0
  7  8  1  0  0  0  0
  7  9  1  0  0  0  0
  7 10  1  0  0  0  0
 10 11  1  0  0  0  0
 10 12  1  0  0  0  0
 10 13  1  0  0  0  0
 13 14  1  0  0  0  0
 13 15  1  0  0  0  0
 13 16  1  0  0  0  0
 16 17  1  0  0  0  0
 16 18  1  0  0  0  0
 16 19  1  0  0  0  0
 19 20  1  0  0  0  0
 19 21  1  0  0  0  0
 19 22  1  0  0  0  0
  1 23  1  0  0  0  0
 23 24  1  0  0  0  0
 23 25  1  0  0  0  0
 23 26  1  0  0  0  0
M  END
> <VM2 Rank>
144

> <Conf_Id>
793

> <Probability>
0.01

> <Sum Probability>
99.72

> <Delta G>
3.751

> <G>
79.217

> <E>
45.806

> <-TS>
33.411

> <U+W>
24.345

> <U>
74.534

> <W>
-50.190

> <W(PB)>
-52.349

> <W(SA)>
2.159

> <Valence>
4.948

> <Coulomb>
69.618

> <VdW>
-0.032

> <VdW6>
-9.810

> <VdW12>
9.778

> <Bond>
0.300

> <Angle>
1.880

> <Pdih>
2.768

> <Idih>
0.000

> <Tether>
0.000

$$$$
VeraChem MOL file


 26 25  0  0  0  0  0  0  0  0999 V2000     
   20.2421   19.8978   25.5123 N   0  3  0  0  0  0  0  0  0  0  0  0
   20.3514   20.4771   24.6674 H   0  0  0  0  0  0  0  0  0  0  0  0
   20.7457   20.4084   26.2549 H   0  0  0  0  0  0  0  0  0  0  0  0
   20.8925   18.5417   25.2983 C   0  0  0  0  0  0  0  0  0  0  0  0
   20.7535   17.9685   26.2183 H   0  0  0  0  0  0  0  0  0  0  0  0
   21.9647   18.7115   25.1716 H   0  0  0  0  0  0  0  0  0  0  0  0
   20.3730   17.7120   24.1004 C   0  0  0  0  0  0  0  0  0  0  0  0
   20.8729   16.7354   24.1464 H   0  0  0  0  0  0  0  0  0  0  0  0
   19.3015   17.5009   24.2102 H   0  0  0  0  0  0  0  0  0  0  0  0
   20.6669   18.3360   22.7115 C   0  0  0  0  0  0  0  0  0  0  0  0
   20.7264   17.5170   21.9829 H   0  0  0  0  0  0  0  0  0  0  0  0
   21.6572   18.8118   22.7178 H   0  0  0  0  0  0  0  0  0  0  0  0
   19.5875   19.3422   22.2351 C   0  0  0  0  0  0  0  0  0  0  0  0
   18.6161   18.8337   22.1645 H   0  0  0  0  0  0  0  0  0  0  0  0
   19.4604   20.1387   22.9759 H   0  0  0  0  0  0  0  0  0  0  0  0
   19.9206   20.0033   20.8754 C   0  0  0  0  0  0  0  0  0  0  0  0
   20.8842   20.5275   20.9427 H   0  0  0  0  0  0  0  0  0  0  0  0
   19.1662   20.7744   20.6649 H   0  0  0  0  0  0  0  0  0  0  0  0
   19.9530   19.0059   19.6948 C   0  0  0  0  0  0  0  0  0  0  0  0
   20.0949   19.5389   18.7458 H   0  0  0  0  0  0  0  0  0  0  0  0
   19.0125   18.4440   19.6261 H   0  0  0  0  0  0  0  0  0  0  0  0
   20.7765   18.2882   19.7947 H   0  0  0  0  0  0  0  0  0  0  0  0
   18.7724   19.7510   25.8892 C   0  0  0  0  0  0  0  0  0  0  0  0
   18.6937   19.1505   26.7980 H   0  0  0  0  0  0  0  0  0  0  0  0
   18.3473   20.7419   26.0640 H   0  0  0  0  0  0  0  0  0  0  0  0
   18.2379   19.2604   25.0733 H   0  0  0  0  0  0  0  0  0  0  0  0
  1  2  1  0  0  0  0
  1  3  1  0  0  0  0
  1  4  1  0  0  0  0
  4  5  1  0  0  0  0
  4  6  1  0  0  0  0
  4  7  1  0  0  0  0
  7  8  1  0  0  0  0
  7  9  1  0  0  0  0
  7 10  1  0  0  0  0
 10 11  1  0  0  0  0
 10 12  1  0  0  0  0
 10 13  1  0  0  0  0
 13 14  1  0  0  0  0
 13 15  1  0  0  0  0
 13 16  1  0  0  0  0
 16 17  1  0  0  0  0
 16 18  1  0  0  0  0
 16 19  1  0  0  0  0
 19 20  1  0  0  0  0
 19 21  1  0  0  0  0
 19 22  1  0  0  0  0
  1 23  1  0  0  0  0
 23 24  1  0  0  0  0
 23 25  1  0  0  0  0
 23 26  1  0  0  0  0
M  END
> <VM2 Rank>
145

> <Conf_Id>
1071

> <Probability>
0.01

> <Sum Probability>
99.73

> <Delta G>
3.764

> <G>
79.230

> <E>
46.554

> <-TS>
32.676

> <U+W>
25.092

> <U>
75.033

> <W>
-49.941

> <W(PB)>
-52.156

> <W(SA)>
2.215

> <Valence>
4.541

> <Coulomb>
70.171

> <VdW>
0.322

> <VdW6>
-8.485

> <VdW12>
8.807

> <Bond>
0.270

> <Angle>
1.463

> <Pdih>
2.808

> <Idih>
0.000

> <Tether>
0.000

$$$$
VeraChem MOL file


 26 25  0  0  0  0  0  0  0  0999 V2000     
   20.2147   18.9529   25.9498 N   0  3  0  0  0  0  0  0  0  0  0  0
   20.8655   19.0604   26.7437 H   0  0  0  0  0  0  0  0  0  0  0  0
   19.6336   18.1365   26.1932 H   0  0  0  0  0  0  0  0  0  0  0  0
   21.0125   18.6748   24.6848 C   0  0  0  0  0  0  0  0  0  0  0  0
   21.9112   18.1381   24.9996 H   0  0  0  0  0  0  0  0  0  0  0  0
   21.3298   19.6286   24.2569 H   0  0  0  0  0  0  0  0  0  0  0  0
   20.2963   17.8112   23.6208 C   0  0  0  0  0  0  0  0  0  0  0  0
   21.0389   17.4947   22.8774 H   0  0  0  0  0  0  0  0  0  0  0  0
   19.9387   16.8861   24.0915 H   0  0  0  0  0  0  0  0  0  0  0  0
   19.1156   18.5026   22.8913 C   0  0  0  0  0  0  0  0  0  0  0  0
   18.2961   18.6676   23.6021 H   0  0  0  0  0  0  0  0  0  0  0  0
   18.7082   17.8100   22.1430 H   0  0  0  0  0  0  0  0  0  0  0  0
   19.4727   19.8484   22.2038 C   0  0  0  0  0  0  0  0  0  0  0  0
   18.5713   20.2425   21.7148 H   0  0  0  0  0  0  0  0  0  0  0  0
   19.7426   20.5902   22.9665 H   0  0  0  0  0  0  0  0  0  0  0  0
   20.6151   19.7716   21.1591 C   0  0  0  0  0  0  0  0  0  0  0  0
   21.5547   19.4762   21.6449 H   0  0  0  0  0  0  0  0  0  0  0  0
   20.7891   20.7791   20.7563 H   0  0  0  0  0  0  0  0  0  0  0  0
   20.3107   18.8131   19.9854 C   0  0  0  0  0  0  0  0  0  0  0  0
   19.3668   19.0801   19.4928 H   0  0  0  0  0  0  0  0  0  0  0  0
   20.2394   17.7720   20.3238 H   0  0  0  0  0  0  0  0  0  0  0  0
   21.1078   18.8618   19.2324 H   0  0  0  0  0  0  0  0  0  0  0  0
   19.3703   20.2155   25.8220 C   0  0  0  0  0  0  0  0  0  0  0  0
   18.6398   20.0899   25.0223 H   0  0  0  0  0  0  0  0  0  0  0  0
   18.8515   20.3938   26.7664 H   0  0  0  0  0  0  0  0  0  0  0  0
   20.0236   21.0611   25.5965 H   0  0  0  0  0  0  0  0  0  0  0  0
  1  2  1  0  0  0  0
  1  3  1  0  0  0  0
  1  4  1  0  0  0  0
  4  5  1  0  0  0  0
  4  6  1  0  0  0  0
  4  7  1  0  0  0  0
  7  8  1  0  0  0  0
  7  9  1  0  0  0  0
  7 10  1  0  0  0  0
 10 11  1  0  0  0  0
 10 12  1  0  0  0  0
 10 13  1  0  0  0  0
 13 14  1  0  0  0  0
 13 15  1  0  0  0  0
 13 16  1  0  0  0  0
 16 17  1  0  0  0  0
 16 18  1  0  0  0  0
 16 19  1  0  0  0  0
 19 20  1  0  0  0  0
 19 21  1  0  0  0  0
 19 22  1  0  0  0  0
  1 23  1  0  0  0  0
 23 24  1  0  0  0  0
 23 25  1  0  0  0  0
 23 26  1  0  0  0  0
M  END
> <VM2 Rank>
146

> <Conf_Id>
572

> <Probability>
0.01

> <Sum Probability>
99.74

> <Delta G>
3.781

> <G>
79.247

> <E>
45.835

> <-TS>
33.411

> <U+W>
24.374

> <U>
74.535

> <W>
-50.161

> <W(PB)>
-52.306

> <W(SA)>
2.145

> <Valence>
4.948

> <Coulomb>
69.618

> <VdW>
-0.032

> <VdW6>
-9.810

> <VdW12>
9.778

> <Bond>
0.300

> <Angle>
1.880

> <Pdih>
2.768

> <Idih>
0.000

> <Tether>
0.000

$$$$
VeraChem MOL file


 26 25  0  0  0  0  0  0  0  0999 V2000     
   19.2402   18.8363   25.7895 N   0  3  0  0  0  0  0  0  0  0  0  0
   19.7821   18.2155   26.4102 H   0  0  0  0  0  0  0  0  0  0  0  0
   18.2515   18.6289   26.0021 H   0  0  0  0  0  0  0  0  0  0  0  0
   19.5283   18.5072   24.3347 C   0  0  0  0  0  0  0  0  0  0  0  0
   18.9729   19.2160   23.7189 H   0  0  0  0  0  0  0  0  0  0  0  0
   19.1281   17.5085   24.1426 H   0  0  0  0  0  0  0  0  0  0  0  0
   21.0262   18.5242   23.9604 C   0  0  0  0  0  0  0  0  0  0  0  0
   21.4639   19.5108   24.1592 H   0  0  0  0  0  0  0  0  0  0  0  0
   21.5481   17.8164   24.6179 H   0  0  0  0  0  0  0  0  0  0  0  0
   21.2925   18.1180   22.4886 C   0  0  0  0  0  0  0  0  0  0  0  0
   20.6225   17.3000   22.1917 H   0  0  0  0  0  0  0  0  0  0  0  0
   22.3064   17.6981   22.4333 H   0  0  0  0  0  0  0  0  0  0  0  0
   21.2203   19.2850   21.4664 C   0  0  0  0  0  0  0  0  0  0  0  0
   21.9725   20.0393   21.7354 H   0  0  0  0  0  0  0  0  0  0  0  0
   21.5228   18.9036   20.4814 H   0  0  0  0  0  0  0  0  0  0  0  0
   19.8460   19.9848   21.3221 C   0  0  0  0  0  0  0  0  0  0  0  0
   19.9442   20.7919   20.5826 H   0  0  0  0  0  0  0  0  0  0  0  0
   19.5702   20.4798   22.2618 H   0  0  0  0  0  0  0  0  0  0  0  0
   18.7165   19.0339   20.8638 C   0  0  0  0  0  0  0  0  0  0  0  0
   18.5168   18.2513   21.6053 H   0  0  0  0  0  0  0  0  0  0  0  0
   18.9747   18.5464   19.9148 H   0  0  0  0  0  0  0  0  0  0  0  0
   17.7832   19.5910   20.7108 H   0  0  0  0  0  0  0  0  0  0  0  0
   19.5380   20.3006   26.0915 C   0  0  0  0  0  0  0  0  0  0  0  0
   18.9368   20.9320   25.4337 H   0  0  0  0  0  0  0  0  0  0  0  0
   19.2858   20.5086   27.1337 H   0  0  0  0  0  0  0  0  0  0  0  0
   20.5992   20.4960   25.9250 H   0  0  0  0  0  0  0  0  0  0  0  0
  1  2  1  0  0  0  0
  1  3  1  0  0  0  0
  1  4  1  0  0  0  0
  4  5  1  0  0  0  0
  4  6  1  0  0  0  0
  4  7  1  0  0  0  0
  7  8  1  0  0  0  0
  7  9  1  0  0  0  0
  7 10  1  0  0  0  0
 10 11  1  0  0  0  0
 10 12  1  0  0  0  0
 10 13  1  0  0  0  0
 13 14  1  0  0  0  0
 13 15  1  0  0  0  0
 13 16  1  0  0  0  0
 16 17  1  0  0  0  0
 16 18  1  0  0  0  0
 16 19  1  0  0  0  0
 19 20  1  0  0  0  0
 19 21  1  0  0  0  0
 19 22  1  0  0  0  0
  1 23  1  0  0  0  0
 23 24  1  0  0  0  0
 23 25  1  0  0  0  0
 23 26  1  0  0  0  0
M  END
> <VM2 Rank>
147

> <Conf_Id>
1114

> <Probability>
0.01

> <Sum Probability>
99.75

> <Delta G>
3.788

> <G>
79.254

> <E>
46.120

> <-TS>
33.134

> <U+W>
24.658

> <U>
74.630

> <W>
-49.972

> <W(PB)>
-52.193

> <W(SA)>
2.220

> <Valence>
4.879

> <Coulomb>
69.648

> <VdW>
0.103

> <VdW6>
-8.909

> <VdW12>
9.013

> <Bond>
0.274

> <Angle>
1.757

> <Pdih>
2.848

> <Idih>
0.000

> <Tether>
0.000

$$$$
VeraChem MOL file


 26 25  0  0  0  0  0  0  0  0999 V2000     
   20.2857   19.1290   25.9330 N   0  3  0  0  0  0  0  0  0  0  0  0
   20.9712   19.8210   25.5949 H   0  0  0  0  0  0  0  0  0  0  0  0
   20.8277   18.2709   26.1192 H   0  0  0  0  0  0  0  0  0  0  0  0
   19.2419   18.8652   24.8649 C   0  0  0  0  0  0  0  0  0  0  0  0
   18.6974   19.7961   24.6882 H   0  0  0  0  0  0  0  0  0  0  0  0
   18.5394   18.1300   25.2657 H   0  0  0  0  0  0  0  0  0  0  0  0
   19.8229   18.3444   23.5356 C   0  0  0  0  0  0  0  0  0  0  0  0
   20.3738   17.4123   23.7189 H   0  0  0  0  0  0  0  0  0  0  0  0
   18.9877   18.0821   22.8767 H   0  0  0  0  0  0  0  0  0  0  0  0
   20.7493   19.3767   22.8434 C   0  0  0  0  0  0  0  0  0  0  0  0
   21.6172   19.5574   23.4915 H   0  0  0  0  0  0  0  0  0  0  0  0
   20.2371   20.3438   22.7436 H   0  0  0  0  0  0  0  0  0  0  0  0
   21.2696   18.9060   21.4599 C   0  0  0  0  0  0  0  0  0  0  0  0
   22.2979   19.2736   21.3377 H   0  0  0  0  0  0  0  0  0  0  0  0
   21.3427   17.8100   21.4321 H   0  0  0  0  0  0  0  0  0  0  0  0
   20.4461   19.4164   20.2496 C   0  0  0  0  0  0  0  0  0  0  0  0
   20.9424   19.0861   19.3263 H   0  0  0  0  0  0  0  0  0  0  0  0
   20.4653   20.5150   20.2281 H   0  0  0  0  0  0  0  0  0  0  0  0
   18.9806   18.9294   20.2249 C   0  0  0  0  0  0  0  0  0  0  0  0
   18.3999   19.3699   21.0447 H   0  0  0  0  0  0  0  0  0  0  0  0
   18.9247   17.8360   20.3036 H   0  0  0  0  0  0  0  0  0  0  0  0
   18.4949   19.2232   19.2854 H   0  0  0  0  0  0  0  0  0  0  0  0
   19.6120   19.6230   27.2056 C   0  0  0  0  0  0  0  0  0  0  0  0
   19.0718   20.5475   26.9903 H   0  0  0  0  0  0  0  0  0  0  0  0
   18.9148   18.8613   27.5616 H   0  0  0  0  0  0  0  0  0  0  0  0
   20.3742   19.8094   27.9654 H   0  0  0  0  0  0  0  0  0  0  0  0
  1  2  1  0  0  0  0
  1  3  1  0  0  0  0
  1  4  1  0  0  0  0
  4  5  1  0  0  0  0
  4  6  1  0  0  0  0
  4  7  1  0  0  0  0
  7  8  1  0  0  0  0
  7  9  1  0  0  0  0
  7 10  1  0  0  0  0
 10 11  1  0  0  0  0
 10 12  1  0  0  0  0
 10 13  1  0  0  0  0
 13 14  1  0  0  0  0
 13 15  1  0  0  0  0
 13 16  1  0  0  0  0
 16 17  1  0  0  0  0
 16 18  1  0  0  0  0
 16 19  1  0  0  0  0
 19 20  1  0  0  0  0
 19 21  1  0  0  0  0
 19 22  1  0  0  0  0
  1 23  1  0  0  0  0
 23 24  1  0  0  0  0
 23 25  1  0  0  0  0
 23 26  1  0  0  0  0
M  END
> <VM2 Rank>
148

> <Conf_Id>
1594

> <Probability>
0.01

> <Sum Probability>
99.77

> <Delta G>
3.795

> <G>
79.261

> <E>
46.642

> <-TS>
32.618

> <U+W>
25.180

> <U>
74.517

> <W>
-49.336

> <W(PB)>
-51.570

> <W(SA)>
2.234

> <Valence>
4.842

> <Coulomb>
69.332

> <VdW>
0.342

> <VdW6>
-7.369

> <VdW12>
7.711

> <Bond>
0.232

> <Angle>
1.153

> <Pdih>
3.457

> <Idih>
0.000

> <Tether>
0.000

$$$$
VeraChem MOL file


 26 25  0  0  0  0  0  0  0  0999 V2000     
   19.6255   19.0615   25.9096 N   0  3  0  0  0  0  0  0  0  0  0  0
   19.2562   18.1104   26.0638 H   0  0  0  0  0  0  0  0  0  0  0  0
   18.8398   19.6032   25.5193 H   0  0  0  0  0  0  0  0  0  0  0  0
   20.7732   19.0213   24.9192 C   0  0  0  0  0  0  0  0  0  0  0  0
   21.5798   18.4400   25.3733 H   0  0  0  0  0  0  0  0  0  0  0  0
   21.1297   20.0442   24.7744 H   0  0  0  0  0  0  0  0  0  0  0  0
   20.4036   18.4035   23.5562 C   0  0  0  0  0  0  0  0  0  0  0  0
   21.3186   18.3198   22.9592 H   0  0  0  0  0  0  0  0  0  0  0  0
   20.0406   17.3782   23.7071 H   0  0  0  0  0  0  0  0  0  0  0  0
   19.3390   19.2328   22.7935 C   0  0  0  0  0  0  0  0  0  0  0  0
   19.6513   20.2840   22.7229 H   0  0  0  0  0  0  0  0  0  0  0  0
   18.4092   19.2301   23.3779 H   0  0  0  0  0  0  0  0  0  0  0  0
   19.0225   18.6768   21.3803 C   0  0  0  0  0  0  0  0  0  0  0  0
   19.1739   17.5888   21.3553 H   0  0  0  0  0  0  0  0  0  0  0  0
   17.9523   18.8304   21.1837 H   0  0  0  0  0  0  0  0  0  0  0  0
   19.8089   19.3515   20.2271 C   0  0  0  0  0  0  0  0  0  0  0  0
   19.5701   20.4238   20.1965 H   0  0  0  0  0  0  0  0  0  0  0  0
   19.4553   18.9346   19.2736 H   0  0  0  0  0  0  0  0  0  0  0  0
   21.3405   19.1701   20.3086 C   0  0  0  0  0  0  0  0  0  0  0  0
   21.8216   19.5627   19.4034 H   0  0  0  0  0  0  0  0  0  0  0  0
   21.6100   18.1099   20.3986 H   0  0  0  0  0  0  0  0  0  0  0  0
   21.7616   19.7127   21.1639 H   0  0  0  0  0  0  0  0  0  0  0  0
   20.0949   19.6725   27.2226 C   0  0  0  0  0  0  0  0  0  0  0  0
   19.2594   19.6958   27.9258 H   0  0  0  0  0  0  0  0  0  0  0  0
   20.9048   19.0649   27.6321 H   0  0  0  0  0  0  0  0  0  0  0  0
   20.4509   20.6886   27.0388 H   0  0  0  0  0  0  0  0  0  0  0  0
  1  2  1  0  0  0  0
  1  3  1  0  0  0  0
  1  4  1  0  0  0  0
  4  5  1  0  0  0  0
  4  6  1  0  0  0  0
  4  7  1  0  0  0  0
  7  8  1  0  0  0  0
  7  9  1  0  0  0  0
  7 10  1  0  0  0  0
 10 11  1  0  0  0  0
 10 12  1  0  0  0  0
 10 13  1  0  0  0  0
 13 14  1  0  0  0  0
 13 15  1  0  0  0  0
 13 16  1  0  0  0  0
 16 17  1  0  0  0  0
 16 18  1  0  0  0  0
 16 19  1  0  0  0  0
 19 20  1  0  0  0  0
 19 21  1  0  0  0  0
 19 22  1  0  0  0  0
  1 23  1  0  0  0  0
 23 24  1  0  0  0  0
 23 25  1  0  0  0  0
 23 26  1  0  0  0  0
M  END
> <VM2 Rank>
149

> <Conf_Id>
1117

> <Probability>
0.01

> <Sum Probability>
99.78

> <Delta G>
3.837

> <G>
79.303

> <E>
46.685

> <-TS>
32.618

> <U+W>
25.223

> <U>
74.517

> <W>
-49.294

> <W(PB)>
-51.561

> <W(SA)>
2.267

> <Valence>
4.842

> <Coulomb>
69.332

> <VdW>
0.342

> <VdW6>
-7.369

> <VdW12>
7.711

> <Bond>
0.232

> <Angle>
1.153

> <Pdih>
3.457

> <Idih>
0.000

> <Tether>
0.000

$$$$
VeraChem MOL file


 26 25  0  0  0  0  0  0  0  0999 V2000     
   19.1379   19.6854   25.2854 N   0  3  0  0  0  0  0  0  0  0  0  0
   18.1256   19.8134   25.4423 H   0  0  0  0  0  0  0  0  0  0  0  0
   19.4224   20.4857   24.7017 H   0  0  0  0  0  0  0  0  0  0  0  0
   19.3764   18.3820   24.5388 C   0  0  0  0  0  0  0  0  0  0  0  0
   18.7037   18.3738   23.6806 H   0  0  0  0  0  0  0  0  0  0  0  0
   19.0758   17.5665   25.2013 H   0  0  0  0  0  0  0  0  0  0  0  0
   20.8301   18.1447   24.0648 C   0  0  0  0  0  0  0  0  0  0  0  0
   21.4760   18.0826   24.9500 H   0  0  0  0  0  0  0  0  0  0  0  0
   20.8967   17.1610   23.5819 H   0  0  0  0  0  0  0  0  0  0  0  0
   21.3944   19.2323   23.1111 C   0  0  0  0  0  0  0  0  0  0  0  0
   22.4905   19.2033   23.1826 H   0  0  0  0  0  0  0  0  0  0  0  0
   21.1085   20.2349   23.4538 H   0  0  0  0  0  0  0  0  0  0  0  0
   21.0262   19.0565   21.6146 C   0  0  0  0  0  0  0  0  0  0  0  0
   21.5620   19.8258   21.0415 H   0  0  0  0  0  0  0  0  0  0  0  0
   21.4059   18.0906   21.2539 H   0  0  0  0  0  0  0  0  0  0  0  0
   19.5159   19.1639   21.3012 C   0  0  0  0  0  0  0  0  0  0  0  0
   19.0960   20.0599   21.7788 H   0  0  0  0  0  0  0  0  0  0  0  0
   18.9864   18.2952   21.7120 H   0  0  0  0  0  0  0  0  0  0  0  0
   19.2530   19.2238   19.7812 C   0  0  0  0  0  0  0  0  0  0  0  0
   18.1763   19.2858   19.5762 H   0  0  0  0  0  0  0  0  0  0  0  0
   19.6406   18.3284   19.2780 H   0  0  0  0  0  0  0  0  0  0  0  0
   19.7318   20.1032   19.3310 H   0  0  0  0  0  0  0  0  0  0  0  0
   19.8742   19.7013   26.6200 C   0  0  0  0  0  0  0  0  0  0  0  0
   20.9488   19.6308   26.4404 H   0  0  0  0  0  0  0  0  0  0  0  0
   19.6494   20.6346   27.1410 H   0  0  0  0  0  0  0  0  0  0  0  0
   19.5422   18.8533   27.2229 H   0  0  0  0  0  0  0  0  0  0  0  0
  1  2  1  0  0  0  0
  1  3  1  0  0  0  0
  1  4  1  0  0  0  0
  4  5  1  0  0  0  0
  4  6  1  0  0  0  0
  4  7  1  0  0  0  0
  7  8  1  0  0  0  0
  7  9  1  0  0  0  0
  7 10  1  0  0  0  0
 10 11  1  0  0  0  0
 10 12  1  0  0  0  0
 10 13  1  0  0  0  0
 13 14  1  0  0  0  0
 13 15  1  0  0  0  0
 13 16  1  0  0  0  0
 16 17  1  0  0  0  0
 16 18  1  0  0  0  0
 16 19  1  0  0  0  0
 19 20  1  0  0  0  0
 19 21  1  0  0  0  0
 19 22  1  0  0  0  0
  1 23  1  0  0  0  0
 23 24  1  0  0  0  0
 23 25  1  0  0  0  0
 23 26  1  0  0  0  0
M  END
> <VM2 Rank>
150

> <Conf_Id>
752

> <Probability>
0.01

> <Sum Probability>
99.79

> <Delta G>
3.854

> <G>
79.320

> <E>
46.729

> <-TS>
32.591

> <U+W>
25.267

> <U>
75.224

> <W>
-49.957

> <W(PB)>
-52.194

> <W(SA)>
2.236

> <Valence>
4.592

> <Coulomb>
70.315

> <VdW>
0.317

> <VdW6>
-8.476

> <VdW12>
8.793

> <Bond>
0.276

> <Angle>
1.614

> <Pdih>
2.702

> <Idih>
0.000

> <Tether>
0.000

$$$$
VeraChem MOL file


 26 25  0  0  0  0  0  0  0  0999 V2000     
   19.3617   19.2682   25.6843 N   0  3  0  0  0  0  0  0  0  0  0  0
   18.4504   18.8857   25.3881 H   0  0  0  0  0  0  0  0  0  0  0  0
   19.3678   20.2482   25.3637 H   0  0  0  0  0  0  0  0  0  0  0  0
   20.4899   18.4983   25.0252 C   0  0  0  0  0  0  0  0  0  0  0  0
   20.4450   17.4693   25.3907 H   0  0  0  0  0  0  0  0  0  0  0  0
   21.4350   18.9368   25.3553 H   0  0  0  0  0  0  0  0  0  0  0  0
   20.4288   18.4972   23.4851 C   0  0  0  0  0  0  0  0  0  0  0  0
   21.2280   17.8469   23.1058 H   0  0  0  0  0  0  0  0  0  0  0  0
   19.4767   18.0549   23.1666 H   0  0  0  0  0  0  0  0  0  0  0  0
   20.5880   19.9141   22.8826 C   0  0  0  0  0  0  0  0  0  0  0  0
   21.4638   20.3975   23.3375 H   0  0  0  0  0  0  0  0  0  0  0  0
   19.7215   20.5326   23.1525 H   0  0  0  0  0  0  0  0  0  0  0  0
   20.7673   19.9370   21.3425 C   0  0  0  0  0  0  0  0  0  0  0  0
   20.9249   20.9829   21.0446 H   0  0  0  0  0  0  0  0  0  0  0  0
   21.6883   19.4084   21.0604 H   0  0  0  0  0  0  0  0  0  0  0  0
   19.5628   19.3839   20.5375 C   0  0  0  0  0  0  0  0  0  0  0  0
   19.4721   19.9593   19.6055 H   0  0  0  0  0  0  0  0  0  0  0  0
   18.6262   19.5514   21.0873 H   0  0  0  0  0  0  0  0  0  0  0  0
   19.7060   17.8904   20.1613 C   0  0  0  0  0  0  0  0  0  0  0  0
   18.8424   17.5594   19.5700 H   0  0  0  0  0  0  0  0  0  0  0  0
   19.7688   17.2454   21.0444 H   0  0  0  0  0  0  0  0  0  0  0  0
   20.6064   17.7232   19.5562 H   0  0  0  0  0  0  0  0  0  0  0  0
   19.5035   19.2009   27.1985 C   0  0  0  0  0  0  0  0  0  0  0  0
   19.4629   18.1569   27.5168 H   0  0  0  0  0  0  0  0  0  0  0  0
   20.4604   19.6397   27.4894 H   0  0  0  0  0  0  0  0  0  0  0  0
   18.6859   19.7593   27.6600 H   0  0  0  0  0  0  0  0  0  0  0  0
  1  2  1  0  0  0  0
  1  3  1  0  0  0  0
  1  4  1  0  0  0  0
  4  5  1  0  0  0  0
  4  6  1  0  0  0  0
  4  7  1  0  0  0  0
  7  8  1  0  0  0  0
  7  9  1  0  0  0  0
  7 10  1  0  0  0  0
 10 11  1  0  0  0  0
 10 12  1  0  0  0  0
 10 13  1  0  0  0  0
 13 14  1  0  0  0  0
 13 15  1  0  0  0  0
 13 16  1  0  0  0  0
 16 17  1  0  0  0  0
 16 18  1  0  0  0  0
 16 19  1  0  0  0  0
 19 20  1  0  0  0  0
 19 21  1  0  0  0  0
 19 22  1  0  0  0  0
  1 23  1  0  0  0  0
 23 24  1  0  0  0  0
 23 25  1  0  0  0  0
 23 26  1  0  0  0  0
M  END
> <VM2 Rank>
151

> <Conf_Id>
438

> <Probability>
0.01

> <Sum Probability>
99.80

> <Delta G>
3.878

> <G>
79.344

> <E>
46.758

> <-TS>
32.585

> <U+W>
25.297

> <U>
74.608

> <W>
-49.312

> <W(PB)>
-51.564

> <W(SA)>
2.252

> <Valence>
4.823

> <Coulomb>
69.470

> <VdW>
0.315

> <VdW6>
-7.375

> <VdW12>
7.690

> <Bond>
0.227

> <Angle>
1.209

> <Pdih>
3.386

> <Idih>
0.000

> <Tether>
0.000

$$$$
VeraChem MOL file


 26 25  0  0  0  0  0  0  0  0999 V2000     
   19.7069   18.7423   25.8806 N   0  3  0  0  0  0  0  0  0  0  0  0
   19.7421   17.7134   25.8111 H   0  0  0  0  0  0  0  0  0  0  0  0
   18.7543   19.0064   25.5875 H   0  0  0  0  0  0  0  0  0  0  0  0
   20.7305   19.3633   24.9495 C   0  0  0  0  0  0  0  0  0  0  0  0
   21.7198   19.0573   25.2990 H   0  0  0  0  0  0  0  0  0  0  0  0
   20.6571   20.4498   25.0424 H   0  0  0  0  0  0  0  0  0  0  0  0
   20.5640   18.9562   23.4720 C   0  0  0  0  0  0  0  0  0  0  0  0
   21.4208   19.3564   22.9163 H   0  0  0  0  0  0  0  0  0  0  0  0
   20.6080   17.8626   23.3848 H   0  0  0  0  0  0  0  0  0  0  0  0
   19.2514   19.4901   22.8481 C   0  0  0  0  0  0  0  0  0  0  0  0
   19.2580   20.5887   22.8718 H   0  0  0  0  0  0  0  0  0  0  0  0
   18.3989   19.1772   23.4651 H   0  0  0  0  0  0  0  0  0  0  0  0
   18.9908   19.0085   21.3971 C   0  0  0  0  0  0  0  0  0  0  0  0
   18.8741   17.9162   21.3769 H   0  0  0  0  0  0  0  0  0  0  0  0
   18.0187   19.4144   21.0844 H   0  0  0  0  0  0  0  0  0  0  0  0
   20.0545   19.4536   20.3602 C   0  0  0  0  0  0  0  0  0  0  0  0
   20.5165   20.4017   20.6688 H   0  0  0  0  0  0  0  0  0  0  0  0
   19.5483   19.6616   19.4070 H   0  0  0  0  0  0  0  0  0  0  0  0
   21.1416   18.3850   20.0980 C   0  0  0  0  0  0  0  0  0  0  0  0
   20.6950   17.4575   19.7167 H   0  0  0  0  0  0  0  0  0  0  0  0
   21.7065   18.1389   21.0037 H   0  0  0  0  0  0  0  0  0  0  0  0
   21.8576   18.7421   19.3466 H   0  0  0  0  0  0  0  0  0  0  0  0
   19.9684   19.1909   27.3116 C   0  0  0  0  0  0  0  0  0  0  0  0
   20.9695   18.8726   27.6104 H   0  0  0  0  0  0  0  0  0  0  0  0
   19.8944   20.2793   27.3659 H   0  0  0  0  0  0  0  0  0  0  0  0
   19.2250   18.7372   27.9708 H   0  0  0  0  0  0  0  0  0  0  0  0
  1  2  1  0  0  0  0
  1  3  1  0  0  0  0
  1  4  1  0  0  0  0
  4  5  1  0  0  0  0
  4  6  1  0  0  0  0
  4  7  1  0  0  0  0
  7  8  1  0  0  0  0
  7  9  1  0  0  0  0
  7 10  1  0  0  0  0
 10 11  1  0  0  0  0
 10 12  1  0  0  0  0
 10 13  1  0  0  0  0
 13 14  1  0  0  0  0
 13 15  1  0  0  0  0
 13 16  1  0  0  0  0
 16 17  1  0  0  0  0
 16 18  1  0  0  0  0
 16 19  1  0  0  0  0
 19 20  1  0  0  0  0
 19 21  1  0  0  0  0
 19 22  1  0  0  0  0
  1 23  1  0  0  0  0
 23 24  1  0  0  0  0
 23 25  1  0  0  0  0
 23 26  1  0  0  0  0
M  END
> <VM2 Rank>
152

> <Conf_Id>
252

> <Probability>
0.01

> <Sum Probability>
99.81

> <Delta G>
3.878

> <G>
79.344

> <E>
46.765

> <-TS>
32.579

> <U+W>
25.303

> <U>
74.594

> <W>
-49.291

> <W(PB)>
-51.538

> <W(SA)>
2.247

> <Valence>
4.886

> <Coulomb>
69.331

> <VdW>
0.376

> <VdW6>
-7.329

> <VdW12>
7.706

> <Bond>
0.232

> <Angle>
1.251

> <Pdih>
3.403

> <Idih>
0.000

> <Tether>
0.000

$$$$
VeraChem MOL file


 26 25  0  0  0  0  0  0  0  0999 V2000     
   20.2728   18.8001   25.9006 N   0  3  0  0  0  0  0  0  0  0  0  0
   21.1704   19.2535   25.6731 H   0  0  0  0  0  0  0  0  0  0  0  0
   20.4513   17.7859   25.8362 H   0  0  0  0  0  0  0  0  0  0  0  0
   19.2125   19.2079   24.8957 C   0  0  0  0  0  0  0  0  0  0  0  0
   19.0579   20.2861   24.9858 H   0  0  0  0  0  0  0  0  0  0  0  0
   18.2835   18.7056   25.1773 H   0  0  0  0  0  0  0  0  0  0  0  0
   19.5609   18.8536   23.4364 C   0  0  0  0  0  0  0  0  0  0  0  0
   19.7454   17.7743   23.3543 H   0  0  0  0  0  0  0  0  0  0  0  0
   18.6819   19.0761   22.8193 H   0  0  0  0  0  0  0  0  0  0  0  0
   20.7786   19.6466   22.9022 C   0  0  0  0  0  0  0  0  0  0  0  0
   21.6315   19.5083   23.5796 H   0  0  0  0  0  0  0  0  0  0  0  0
   20.5481   20.7209   22.9174 H   0  0  0  0  0  0  0  0  0  0  0  0
   21.2323   19.2381   21.4765 C   0  0  0  0  0  0  0  0  0  0  0  0
   22.1216   19.8346   21.2297 H   0  0  0  0  0  0  0  0  0  0  0  0
   21.5688   18.1922   21.4724 H   0  0  0  0  0  0  0  0  0  0  0  0
   20.1758   19.4660   20.3644 C   0  0  0  0  0  0  0  0  0  0  0  0
   20.6949   19.7789   19.4476 H   0  0  0  0  0  0  0  0  0  0  0  0
   19.5110   20.2987   20.6331 H   0  0  0  0  0  0  0  0  0  0  0  0
   19.3486   18.2013   20.0345 C   0  0  0  0  0  0  0  0  0  0  0  0
   19.9993   17.3861   19.6922 H   0  0  0  0  0  0  0  0  0  0  0  0
   18.6295   18.4114   19.2323 H   0  0  0  0  0  0  0  0  0  0  0  0
   18.7832   17.8395   20.9002 H   0  0  0  0  0  0  0  0  0  0  0  0
   19.8265   19.1764   27.3065 C   0  0  0  0  0  0  0  0  0  0  0  0
   20.5982   18.8776   28.0194 H   0  0  0  0  0  0  0  0  0  0  0  0
   19.6749   20.2568   27.3581 H   0  0  0  0  0  0  0  0  0  0  0  0
   18.8919   18.6601   27.5368 H   0  0  0  0  0  0  0  0  0  0  0  0
  1  2  1  0  0  0  0
  1  3  1  0  0  0  0
  1  4  1  0  0  0  0
  4  5  1  0  0  0  0
  4  6  1  0  0  0  0
  4  7  1  0  0  0  0
  7  8  1  0  0  0  0
  7  9  1  0  0  0  0
  7 10  1  0  0  0  0
 10 11  1  0  0  0  0
 10 12  1  0  0  0  0
 10 13  1  0  0  0  0
 13 14  1  0  0  0  0
 13 15  1  0  0  0  0
 13 16  1  0  0  0  0
 16 17  1  0  0  0  0
 16 18  1  0  0  0  0
 16 19  1  0  0  0  0
 19 20  1  0  0  0  0
 19 21  1  0  0  0  0
 19 22  1  0  0  0  0
  1 23  1  0  0  0  0
 23 24  1  0  0  0  0
 23 25  1  0  0  0  0
 23 26  1  0  0  0  0
M  END
> <VM2 Rank>
153

> <Conf_Id>
77

> <Probability>
0.01

> <Sum Probability>
99.82

> <Delta G>
3.885

> <G>
79.351

> <E>
46.772

> <-TS>
32.579

> <U+W>
25.310

> <U>
74.594

> <W>
-49.283

> <W(PB)>
-51.537

> <W(SA)>
2.253

> <Valence>
4.886

> <Coulomb>
69.332

> <VdW>
0.376

> <VdW6>
-7.329

> <VdW12>
7.706

> <Bond>
0.232

> <Angle>
1.250

> <Pdih>
3.404

> <Idih>
0.000

> <Tether>
0.000

$$$$
VeraChem MOL file


 26 25  0  0  0  0  0  0  0  0999 V2000     
   19.3467   18.8572   25.4487 N   0  3  0  0  0  0  0  0  0  0  0  0
   19.2118   17.8551   25.6544 H   0  0  0  0  0  0  0  0  0  0  0  0
   18.7714   19.0472   24.6157 H   0  0  0  0  0  0  0  0  0  0  0  0
   20.8079   19.1349   25.1509 C   0  0  0  0  0  0  0  0  0  0  0  0
   21.3700   18.8662   26.0489 H   0  0  0  0  0  0  0  0  0  0  0  0
   20.9302   20.2077   24.9824 H   0  0  0  0  0  0  0  0  0  0  0  0
   21.3730   18.3484   23.9494 C   0  0  0  0  0  0  0  0  0  0  0  0
   22.4596   18.2666   24.0850 H   0  0  0  0  0  0  0  0  0  0  0  0
   20.9907   17.3190   23.9594 H   0  0  0  0  0  0  0  0  0  0  0  0
   21.1156   19.0071   22.5696 C   0  0  0  0  0  0  0  0  0  0  0  0
   21.6449   18.4132   21.8138 H   0  0  0  0  0  0  0  0  0  0  0  0
   21.5746   20.0052   22.5510 H   0  0  0  0  0  0  0  0  0  0  0  0
   19.6193   19.1218   22.1829 C   0  0  0  0  0  0  0  0  0  0  0  0
   19.1327   18.1408   22.2721 H   0  0  0  0  0  0  0  0  0  0  0  0
   19.1146   19.7948   22.8869 H   0  0  0  0  0  0  0  0  0  0  0  0
   19.3925   19.6815   20.7573 C   0  0  0  0  0  0  0  0  0  0  0  0
   19.8931   20.6545   20.6546 H   0  0  0  0  0  0  0  0  0  0  0  0
   18.3188   19.8739   20.6226 H   0  0  0  0  0  0  0  0  0  0  0  0
   19.8671   18.7293   19.6356 C   0  0  0  0  0  0  0  0  0  0  0  0
   19.5899   19.1283   18.6512 H   0  0  0  0  0  0  0  0  0  0  0  0
   19.4059   17.7383   19.7368 H   0  0  0  0  0  0  0  0  0  0  0  0
   20.9567   18.6041   19.6434 H   0  0  0  0  0  0  0  0  0  0  0  0
   18.8859   19.7097   26.6226 C   0  0  0  0  0  0  0  0  0  0  0  0
   19.4883   19.4668   27.5007 H   0  0  0  0  0  0  0  0  0  0  0  0
   19.0087   20.7652   26.3701 H   0  0  0  0  0  0  0  0  0  0  0  0
   17.8338   19.4991   26.8274 H   0  0  0  0  0  0  0  0  0  0  0  0
  1  2  1  0  0  0  0
  1  3  1  0  0  0  0
  1  4  1  0  0  0  0
  4  5  1  0  0  0  0
  4  6  1  0  0  0  0
  4  7  1  0  0  0  0
  7  8  1  0  0  0  0
  7  9  1  0  0  0  0
  7 10  1  0  0  0  0
 10 11  1  0  0  0  0
 10 12  1  0  0  0  0
 10 13  1  0  0  0  0
 13 14  1  0  0  0  0
 13 15  1  0  0  0  0
 13 16  1  0  0  0  0
 16 17  1  0  0  0  0
 16 18  1  0  0  0  0
 16 19  1  0  0  0  0
 19 20  1  0  0  0  0
 19 21  1  0  0  0  0
 19 22  1  0  0  0  0
  1 23  1  0  0  0  0
 23 24  1  0  0  0  0
 23 25  1  0  0  0  0
 23 26  1  0  0  0  0
M  END
> <VM2 Rank>
154

> <Conf_Id>
1568

> <Probability>
0.01

> <Sum Probability>
99.83

> <Delta G>
3.891

> <G>
79.356

> <E>
46.981

> <-TS>
32.375

> <U+W>
25.520

> <U>
74.712

> <W>
-49.192

> <W(PB)>
-51.483

> <W(SA)>
2.291

> <Valence>
4.001

> <Coulomb>
70.535

> <VdW>
0.175

> <VdW6>
-7.476

> <VdW12>
7.651

> <Bond>
0.220

> <Angle>
1.251

> <Pdih>
2.530

> <Idih>
0.000

> <Tether>
0.000

$$$$
VeraChem MOL file


 26 25  0  0  0  0  0  0  0  0999 V2000     
   19.7879   18.4303   25.8904 N   0  3  0  0  0  0  0  0  0  0  0  0
   20.6563   18.0643   26.3108 H   0  0  0  0  0  0  0  0  0  0  0  0
   19.2739   17.6007   25.5553 H   0  0  0  0  0  0  0  0  0  0  0  0
   20.1153   19.3473   24.7292 C   0  0  0  0  0  0  0  0  0  0  0  0
   20.6668   20.2042   25.1241 H   0  0  0  0  0  0  0  0  0  0  0  0
   19.1711   19.7072   24.3142 H   0  0  0  0  0  0  0  0  0  0  0  0
   20.9450   18.6609   23.6267 C   0  0  0  0  0  0  0  0  0  0  0  0
   21.8695   18.2700   24.0719 H   0  0  0  0  0  0  0  0  0  0  0  0
   20.3961   17.7940   23.2429 H   0  0  0  0  0  0  0  0  0  0  0  0
   21.3196   19.6267   22.4737 C   0  0  0  0  0  0  0  0  0  0  0  0
   22.0458   19.1424   21.8063 H   0  0  0  0  0  0  0  0  0  0  0  0
   21.8472   20.4868   22.9089 H   0  0  0  0  0  0  0  0  0  0  0  0
   20.1166   20.1515   21.6425 C   0  0  0  0  0  0  0  0  0  0  0  0
   19.2183   20.2440   22.2661 H   0  0  0  0  0  0  0  0  0  0  0  0
   20.3517   21.1739   21.3153 H   0  0  0  0  0  0  0  0  0  0  0  0
   19.7929   19.3234   20.3725 C   0  0  0  0  0  0  0  0  0  0  0  0
   20.6616   19.3242   19.6994 H   0  0  0  0  0  0  0  0  0  0  0  0
   18.9850   19.8289   19.8252 H   0  0  0  0  0  0  0  0  0  0  0  0
   19.3628   17.8670   20.6529 C   0  0  0  0  0  0  0  0  0  0  0  0
   19.0080   17.3882   19.7311 H   0  0  0  0  0  0  0  0  0  0  0  0
   18.5475   17.8279   21.3868 H   0  0  0  0  0  0  0  0  0  0  0  0
   20.2022   17.2690   21.0281 H   0  0  0  0  0  0  0  0  0  0  0  0
   18.9678   19.1828   26.9291 C   0  0  0  0  0  0  0  0  0  0  0  0
   18.0399   19.5315   26.4705 H   0  0  0  0  0  0  0  0  0  0  0  0
   18.7391   18.5115   27.7599 H   0  0  0  0  0  0  0  0  0  0  0  0
   19.5446   20.0362   27.2926 H   0  0  0  0  0  0  0  0  0  0  0  0
  1  2  1  0  0  0  0
  1  3  1  0  0  0  0
  1  4  1  0  0  0  0
  4  5  1  0  0  0  0
  4  6  1  0  0  0  0
  4  7  1  0  0  0  0
  7  8  1  0  0  0  0
  7  9  1  0  0  0  0
  7 10  1  0  0  0  0
 10 11  1  0  0  0  0
 10 12  1  0  0  0  0
 10 13  1  0  0  0  0
 13 14  1  0  0  0  0
 13 15  1  0  0  0  0
 13 16  1  0  0  0  0
 16 17  1  0  0  0  0
 16 18  1  0  0  0  0
 16 19  1  0  0  0  0
 19 20  1  0  0  0  0
 19 21  1  0  0  0  0
 19 22  1  0  0  0  0
  1 23  1  0  0  0  0
 23 24  1  0  0  0  0
 23 25  1  0  0  0  0
 23 26  1  0  0  0  0
M  END
> <VM2 Rank>
155

> <Conf_Id>
802

> <Probability>
0.01

> <Sum Probability>
99.84

> <Delta G>
3.906

> <G>
79.372

> <E>
46.848

> <-TS>
32.524

> <U+W>
25.386

> <U>
74.853

> <W>
-49.467

> <W(PB)>
-51.721

> <W(SA)>
2.254

> <Valence>
5.100

> <Coulomb>
69.478

> <VdW>
0.275

> <VdW6>
-7.403

> <VdW12>
7.678

> <Bond>
0.247

> <Angle>
1.393

> <Pdih>
3.459

> <Idih>
0.000

> <Tether>
0.000

$$$$
VeraChem MOL file


 26 25  0  0  0  0  0  0  0  0999 V2000     
   20.2561   18.4782   25.9069 N   0  3  0  0  0  0  0  0  0  0  0  0
   20.9495   17.7722   25.6146 H   0  0  0  0  0  0  0  0  0  0  0  0
   19.4525   17.9411   26.2681 H   0  0  0  0  0  0  0  0  0  0  0  0
   19.8322   19.3184   24.7191 C   0  0  0  0  0  0  0  0  0  0  0  0
   20.7107   19.8647   24.3687 H   0  0  0  0  0  0  0  0  0  0  0  0
   19.0925   20.0431   25.0683 H   0  0  0  0  0  0  0  0  0  0  0  0
   19.2377   18.4861   23.5662 C   0  0  0  0  0  0  0  0  0  0  0  0
   19.9761   17.7510   23.2280 H   0  0  0  0  0  0  0  0  0  0  0  0
   18.3825   17.9131   23.9484 H   0  0  0  0  0  0  0  0  0  0  0  0
   18.7569   19.3644   22.3829 C   0  0  0  0  0  0  0  0  0  0  0  0
   18.0371   20.0968   22.7740 H   0  0  0  0  0  0  0  0  0  0  0  0
   18.1923   18.7480   21.6699 H   0  0  0  0  0  0  0  0  0  0  0  0
   19.8840   20.1277   21.6342 C   0  0  0  0  0  0  0  0  0  0  0  0
   19.4704   21.0836   21.2839 H   0  0  0  0  0  0  0  0  0  0  0  0
   20.6990   20.3958   22.3185 H   0  0  0  0  0  0  0  0  0  0  0  0
   20.4568   19.3913   20.3961 C   0  0  0  0  0  0  0  0  0  0  0  0
   21.1820   20.0538   19.9031 H   0  0  0  0  0  0  0  0  0  0  0  0
   19.6553   19.2210   19.6637 H   0  0  0  0  0  0  0  0  0  0  0  0
   21.1521   18.0502   20.7165 C   0  0  0  0  0  0  0  0  0  0  0  0
   21.9050   18.1718   21.5060 H   0  0  0  0  0  0  0  0  0  0  0  0
   21.6603   17.6597   19.8253 H   0  0  0  0  0  0  0  0  0  0  0  0
   20.4270   17.2920   21.0362 H   0  0  0  0  0  0  0  0  0  0  0  0
   20.8322   19.3737   26.9951 C   0  0  0  0  0  0  0  0  0  0  0  0
   20.0708   20.0901   27.3111 H   0  0  0  0  0  0  0  0  0  0  0  0
   21.1332   18.7566   27.8447 H   0  0  0  0  0  0  0  0  0  0  0  0
   21.7002   19.9060   26.6000 H   0  0  0  0  0  0  0  0  0  0  0  0
  1  2  1  0  0  0  0
  1  3  1  0  0  0  0
  1  4  1  0  0  0  0
  4  5  1  0  0  0  0
  4  6  1  0  0  0  0
  4  7  1  0  0  0  0
  7  8  1  0  0  0  0
  7  9  1  0  0  0  0
  7 10  1  0  0  0  0
 10 11  1  0  0  0  0
 10 12  1  0  0  0  0
 10 13  1  0  0  0  0
 13 14  1  0  0  0  0
 13 15  1  0  0  0  0
 13 16  1  0  0  0  0
 16 17  1  0  0  0  0
 16 18  1  0  0  0  0
 16 19  1  0  0  0  0
 19 20  1  0  0  0  0
 19 21  1  0  0  0  0
 19 22  1  0  0  0  0
  1 23  1  0  0  0  0
 23 24  1  0  0  0  0
 23 25  1  0  0  0  0
 23 26  1  0  0  0  0
M  END
> <VM2 Rank>
156

> <Conf_Id>
1242

> <Probability>
0.01

> <Sum Probability>
99.85

> <Delta G>
3.917

> <G>
79.383

> <E>
46.859

> <-TS>
32.524

> <U+W>
25.397

> <U>
74.853

> <W>
-49.456

> <W(PB)>
-51.723

> <W(SA)>
2.268

> <Valence>
5.100

> <Coulomb>
69.478

> <VdW>
0.275

> <VdW6>
-7.403

> <VdW12>
7.678

> <Bond>
0.247

> <Angle>
1.394

> <Pdih>
3.459

> <Idih>
0.000

> <Tether>
0.000

$$$$
VeraChem MOL file


 26 25  0  0  0  0  0  0  0  0999 V2000     
   19.2298   19.0718   25.4593 N   0  3  0  0  0  0  0  0  0  0  0  0
   18.5970   18.3356   25.1099 H   0  0  0  0  0  0  0  0  0  0  0  0
   18.9402   19.9369   24.9790 H   0  0  0  0  0  0  0  0  0  0  0  0
   20.6660   18.7361   25.1067 C   0  0  0  0  0  0  0  0  0  0  0  0
   20.9279   17.8151   25.6337 H   0  0  0  0  0  0  0  0  0  0  0  0
   21.3034   19.5391   25.4855 H   0  0  0  0  0  0  0  0  0  0  0  0
   20.9106   18.5480   23.5966 C   0  0  0  0  0  0  0  0  0  0  0  0
   21.9437   18.2039   23.4556 H   0  0  0  0  0  0  0  0  0  0  0  0
   20.2655   17.7445   23.2240 H   0  0  0  0  0  0  0  0  0  0  0  0
   20.6955   19.8549   22.7910 C   0  0  0  0  0  0  0  0  0  0  0  0
   21.3662   20.6221   23.2025 H   0  0  0  0  0  0  0  0  0  0  0  0
   19.6757   20.2374   22.9292 H   0  0  0  0  0  0  0  0  0  0  0  0
   20.9970   19.7031   21.2769 C   0  0  0  0  0  0  0  0  0  0  0  0
   21.4293   20.6474   20.9181 H   0  0  0  0  0  0  0  0  0  0  0  0
   21.7740   18.9432   21.1161 H   0  0  0  0  0  0  0  0  0  0  0  0
   19.7593   19.3939   20.3958 C   0  0  0  0  0  0  0  0  0  0  0  0
   20.0770   19.3765   19.3438 H   0  0  0  0  0  0  0  0  0  0  0  0
   19.0329   20.2143   20.4796 H   0  0  0  0  0  0  0  0  0  0  0  0
   19.0608   18.0561   20.7235 C   0  0  0  0  0  0  0  0  0  0  0  0
   18.5723   18.0912   21.7047 H   0  0  0  0  0  0  0  0  0  0  0  0
   19.7757   17.2231   20.7166 H   0  0  0  0  0  0  0  0  0  0  0  0
   18.2838   17.8373   19.9797 H   0  0  0  0  0  0  0  0  0  0  0  0
   19.0890   19.2261   26.9672 C   0  0  0  0  0  0  0  0  0  0  0  0
   19.7438   20.0309   27.3085 H   0  0  0  0  0  0  0  0  0  0  0  0
   18.0512   19.4679   27.2074 H   0  0  0  0  0  0  0  0  0  0  0  0
   19.3709   18.2888   27.4519 H   0  0  0  0  0  0  0  0  0  0  0  0
  1  2  1  0  0  0  0
  1  3  1  0  0  0  0
  1  4  1  0  0  0  0
  4  5  1  0  0  0  0
  4  6  1  0  0  0  0
  4  7  1  0  0  0  0
  7  8  1  0  0  0  0
  7  9  1  0  0  0  0
  7 10  1  0  0  0  0
 10 11  1  0  0  0  0
 10 12  1  0  0  0  0
 10 13  1  0  0  0  0
 13 14  1  0  0  0  0
 13 15  1  0  0  0  0
 13 16  1  0  0  0  0
 16 17  1  0  0  0  0
 16 18  1  0  0  0  0
 16 19  1  0  0  0  0
 19 20  1  0  0  0  0
 19 21  1  0  0  0  0
 19 22  1  0  0  0  0
  1 23  1  0  0  0  0
 23 24  1  0  0  0  0
 23 25  1  0  0  0  0
 23 26  1  0  0  0  0
M  END
> <VM2 Rank>
157

> <Conf_Id>
986

> <Probability>
0.01

> <Sum Probability>
99.86

> <Delta G>
3.952

> <G>
79.418

> <E>
46.834

> <-TS>
32.584

> <U+W>
25.372

> <U>
74.907

> <W>
-49.535

> <W(PB)>
-51.746

> <W(SA)>
2.211

> <Valence>
4.797

> <Coulomb>
69.863

> <VdW>
0.247

> <VdW6>
-7.455

> <VdW12>
7.702

> <Bond>
0.232

> <Angle>
1.219

> <Pdih>
3.346

> <Idih>
0.000

> <Tether>
0.000

$$$$
VeraChem MOL file


 26 25  0  0  0  0  0  0  0  0999 V2000     
   19.7523   19.6328   25.7334 N   0  3  0  0  0  0  0  0  0  0  0  0
   19.3982   19.6931   26.7013 H   0  0  0  0  0  0  0  0  0  0  0  0
   19.1434   20.2589   25.1860 H   0  0  0  0  0  0  0  0  0  0  0  0
   19.6188   18.2034   25.2314 C   0  0  0  0  0  0  0  0  0  0  0  0
   18.5932   17.8819   25.4298 H   0  0  0  0  0  0  0  0  0  0  0  0
   20.2881   17.5796   25.8292 H   0  0  0  0  0  0  0  0  0  0  0  0
   19.9269   18.0011   23.7318 C   0  0  0  0  0  0  0  0  0  0  0  0
   20.9711   18.2652   23.5333 H   0  0  0  0  0  0  0  0  0  0  0  0
   19.8363   16.9307   23.5050 H   0  0  0  0  0  0  0  0  0  0  0  0
   18.9673   18.7985   22.8119 C   0  0  0  0  0  0  0  0  0  0  0  0
   19.0181   19.8728   23.0326 H   0  0  0  0  0  0  0  0  0  0  0  0
   17.9385   18.4882   23.0420 H   0  0  0  0  0  0  0  0  0  0  0  0
   19.2245   18.5625   21.3005 C   0  0  0  0  0  0  0  0  0  0  0  0
   19.6227   17.5523   21.1336 H   0  0  0  0  0  0  0  0  0  0  0  0
   18.2567   18.5877   20.7807 H   0  0  0  0  0  0  0  0  0  0  0  0
   20.1423   19.6147   20.6266 C   0  0  0  0  0  0  0  0  0  0  0  0
   19.6798   20.6088   20.7011 H   0  0  0  0  0  0  0  0  0  0  0  0
   20.2022   19.3877   19.5529 H   0  0  0  0  0  0  0  0  0  0  0  0
   21.5749   19.6728   21.2007 C   0  0  0  0  0  0  0  0  0  0  0  0
   21.5780   20.0652   22.2247 H   0  0  0  0  0  0  0  0  0  0  0  0
   22.2040   20.3373   20.5944 H   0  0  0  0  0  0  0  0  0  0  0  0
   22.0417   18.6794   21.2037 H   0  0  0  0  0  0  0  0  0  0  0  0
   21.2010   20.1042   25.6809 C   0  0  0  0  0  0  0  0  0  0  0  0
   21.2610   21.1192   26.0797 H   0  0  0  0  0  0  0  0  0  0  0  0
   21.8181   19.4341   26.2834 H   0  0  0  0  0  0  0  0  0  0  0  0
   21.5462   20.0956   24.6452 H   0  0  0  0  0  0  0  0  0  0  0  0
  1  2  1  0  0  0  0
  1  3  1  0  0  0  0
  1  4  1  0  0  0  0
  4  5  1  0  0  0  0
  4  6  1  0  0  0  0
  4  7  1  0  0  0  0
  7  8  1  0  0  0  0
  7  9  1  0  0  0  0
  7 10  1  0  0  0  0
 10 11  1  0  0  0  0
 10 12  1  0  0  0  0
 10 13  1  0  0  0  0
 13 14  1  0  0  0  0
 13 15  1  0  0  0  0
 13 16  1  0  0  0  0
 16 17  1  0  0  0  0
 16 18  1  0  0  0  0
 16 19  1  0  0  0  0
 19 20  1  0  0  0  0
 19 21  1  0  0  0  0
 19 22  1  0  0  0  0
  1 23  1  0  0  0  0
 23 24  1  0  0  0  0
 23 25  1  0  0  0  0
 23 26  1  0  0  0  0
M  END
> <VM2 Rank>
158

> <Conf_Id>
1558

> <Probability>
0.01

> <Sum Probability>
99.87

> <Delta G>
3.960

> <G>
79.426

> <E>
46.534

> <-TS>
32.893

> <U+W>
25.072

> <U>
75.103

> <W>
-50.032

> <W(PB)>
-52.209

> <W(SA)>
2.177

> <Valence>
5.036

> <Coulomb>
69.777

> <VdW>
0.290

> <VdW6>
-8.613

> <VdW12>
8.903

> <Bond>
0.274

> <Angle>
1.357

> <Pdih>
3.406

> <Idih>
0.000

> <Tether>
0.000

$$$$
VeraChem MOL file


 26 25  0  0  0  0  0  0  0  0999 V2000     
   20.7016   19.2225   25.5116 N   0  3  0  0  0  0  0  0  0  0  0  0
   20.8429   20.1318   25.0466 H   0  0  0  0  0  0  0  0  0  0  0  0
   21.4932   18.6322   25.2126 H   0  0  0  0  0  0  0  0  0  0  0  0
   19.3914   18.6055   25.0615 C   0  0  0  0  0  0  0  0  0  0  0  0
   18.5797   19.2600   25.3890 H   0  0  0  0  0  0  0  0  0  0  0  0
   19.2852   17.6467   25.5754 H   0  0  0  0  0  0  0  0  0  0  0  0
   19.2964   18.3828   23.5394 C   0  0  0  0  0  0  0  0  0  0  0  0
   20.1152   17.7291   23.2186 H   0  0  0  0  0  0  0  0  0  0  0  0
   18.3668   17.8377   23.3288 H   0  0  0  0  0  0  0  0  0  0  0  0
   19.2985   19.7120   22.7416 C   0  0  0  0  0  0  0  0  0  0  0  0
   20.2077   20.2918   22.9482 H   0  0  0  0  0  0  0  0  0  0  0  0
   18.4595   20.3247   23.0998 H   0  0  0  0  0  0  0  0  0  0  0  0
   19.1407   19.5134   21.2112 C   0  0  0  0  0  0  0  0  0  0  0  0
   18.5464   18.6134   21.0018 H   0  0  0  0  0  0  0  0  0  0  0  0
   18.5526   20.3535   20.8165 H   0  0  0  0  0  0  0  0  0  0  0  0
   20.4738   19.4672   20.4211 C   0  0  0  0  0  0  0  0  0  0  0  0
   21.0119   20.4167   20.5499 H   0  0  0  0  0  0  0  0  0  0  0  0
   20.2406   19.3938   19.3496 H   0  0  0  0  0  0  0  0  0  0  0  0
   21.4034   18.2955   20.8061 C   0  0  0  0  0  0  0  0  0  0  0  0
   20.8738   17.3355   20.7550 H   0  0  0  0  0  0  0  0  0  0  0  0
   21.8051   18.4213   21.8188 H   0  0  0  0  0  0  0  0  0  0  0  0
   22.2586   18.2437   20.1199 H   0  0  0  0  0  0  0  0  0  0  0  0
   20.7022   19.3912   27.0245 C   0  0  0  0  0  0  0  0  0  0  0  0
   20.5826   18.4128   27.4949 H   0  0  0  0  0  0  0  0  0  0  0  0
   21.6501   19.8365   27.3350 H   0  0  0  0  0  0  0  0  0  0  0  0
   19.8757   20.0442   27.3133 H   0  0  0  0  0  0  0  0  0  0  0  0
  1  2  1  0  0  0  0
  1  3  1  0  0  0  0
  1  4  1  0  0  0  0
  4  5  1  0  0  0  0
  4  6  1  0  0  0  0
  4  7  1  0  0  0  0
  7  8  1  0  0  0  0
  7  9  1  0  0  0  0
  7 10  1  0  0  0  0
 10 11  1  0  0  0  0
 10 12  1  0  0  0  0
 10 13  1  0  0  0  0
 13 14  1  0  0  0  0
 13 15  1  0  0  0  0
 13 16  1  0  0  0  0
 16 17  1  0  0  0  0
 16 18  1  0  0  0  0
 16 19  1  0  0  0  0
 19 20  1  0  0  0  0
 19 21  1  0  0  0  0
 19 22  1  0  0  0  0
  1 23  1  0  0  0  0
 23 24  1  0  0  0  0
 23 25  1  0  0  0  0
 23 26  1  0  0  0  0
M  END
> <VM2 Rank>
159

> <Conf_Id>
1499

> <Probability>
0.01

> <Sum Probability>
99.88

> <Delta G>
3.962

> <G>
79.428

> <E>
46.845

> <-TS>
32.584

> <U+W>
25.383

> <U>
74.907

> <W>
-49.524

> <W(PB)>
-51.776

> <W(SA)>
2.251

> <Valence>
4.797

> <Coulomb>
69.863

> <VdW>
0.248

> <VdW6>
-7.454

> <VdW12>
7.702

> <Bond>
0.232

> <Angle>
1.219

> <Pdih>
3.345

> <Idih>
0.000

> <Tether>
0.000

$$$$
VeraChem MOL file


 26 25  0  0  0  0  0  0  0  0999 V2000     
   19.3085   19.2015   25.9453 N   0  3  0  0  0  0  0  0  0  0  0  0
   18.5879   18.9167   26.6276 H   0  0  0  0  0  0  0  0  0  0  0  0
   18.9513   20.0735   25.5271 H   0  0  0  0  0  0  0  0  0  0  0  0
   19.4498   18.1288   24.8767 C   0  0  0  0  0  0  0  0  0  0  0  0
   18.4463   17.9022   24.5074 H   0  0  0  0  0  0  0  0  0  0  0  0
   19.8403   17.2300   25.3606 H   0  0  0  0  0  0  0  0  0  0  0  0
   20.3512   18.5035   23.6798 C   0  0  0  0  0  0  0  0  0  0  0  0
   21.3768   18.6781   24.0293 H   0  0  0  0  0  0  0  0  0  0  0  0
   20.4036   17.6385   23.0095 H   0  0  0  0  0  0  0  0  0  0  0  0
   19.8386   19.7482   22.9113 C   0  0  0  0  0  0  0  0  0  0  0  0
   19.8786   20.6138   23.5860 H   0  0  0  0  0  0  0  0  0  0  0  0
   18.7818   19.6218   22.6386 H   0  0  0  0  0  0  0  0  0  0  0  0
   20.6772   20.0808   21.6494 C   0  0  0  0  0  0  0  0  0  0  0  0
   20.7218   21.1739   21.5464 H   0  0  0  0  0  0  0  0  0  0  0  0
   21.7175   19.7545   21.7853 H   0  0  0  0  0  0  0  0  0  0  0  0
   20.1083   19.5114   20.3243 C   0  0  0  0  0  0  0  0  0  0  0  0
   20.7355   19.8666   19.4947 H   0  0  0  0  0  0  0  0  0  0  0  0
   19.1061   19.9254   20.1458 H   0  0  0  0  0  0  0  0  0  0  0  0
   20.0424   17.9693   20.2696 C   0  0  0  0  0  0  0  0  0  0  0  0
   19.7494   17.6336   19.2664 H   0  0  0  0  0  0  0  0  0  0  0  0
   19.3002   17.5764   20.9753 H   0  0  0  0  0  0  0  0  0  0  0  0
   21.0177   17.5223   20.5012 H   0  0  0  0  0  0  0  0  0  0  0  0
   20.6321   19.4466   26.6606 C   0  0  0  0  0  0  0  0  0  0  0  0
   20.9767   18.5116   27.1076 H   0  0  0  0  0  0  0  0  0  0  0  0
   21.3697   19.8078   25.9411 H   0  0  0  0  0  0  0  0  0  0  0  0
   20.4831   20.1958   27.4413 H   0  0  0  0  0  0  0  0  0  0  0  0
  1  2  1  0  0  0  0
  1  3  1  0  0  0  0
  1  4  1  0  0  0  0
  4  5  1  0  0  0  0
  4  6  1  0  0  0  0
  4  7  1  0  0  0  0
  7  8  1  0  0  0  0
  7  9  1  0  0  0  0
  7 10  1  0  0  0  0
 10 11  1  0  0  0  0
 10 12  1  0  0  0  0
 10 13  1  0  0  0  0
 13 14  1  0  0  0  0
 13 15  1  0  0  0  0
 13 16  1  0  0  0  0
 16 17  1  0  0  0  0
 16 18  1  0  0  0  0
 16 19  1  0  0  0  0
 19 20  1  0  0  0  0
 19 21  1  0  0  0  0
 19 22  1  0  0  0  0
  1 23  1  0  0  0  0
 23 24  1  0  0  0  0
 23 25  1  0  0  0  0
 23 26  1  0  0  0  0
M  END
> <VM2 Rank>
160

> <Conf_Id>
749

> <Probability>
0.01

> <Sum Probability>
99.88

> <Delta G>
4.021

> <G>
79.487

> <E>
46.635

> <-TS>
32.852

> <U+W>
25.173

> <U>
74.855

> <W>
-49.682

> <W(PB)>
-51.896

> <W(SA)>
2.214

> <Valence>
5.096

> <Coulomb>
69.227

> <VdW>
0.532

> <VdW6>
-8.269

> <VdW12>
8.801

> <Bond>
0.274

> <Angle>
1.323

> <Pdih>
3.499

> <Idih>
0.000

> <Tether>
0.000

$$$$
VeraChem MOL file


 26 25  0  0  0  0  0  0  0  0999 V2000     
   19.2888   18.3577   25.6042 N   0  3  0  0  0  0  0  0  0  0  0  0
   19.8664   17.5031   25.6239 H   0  0  0  0  0  0  0  0  0  0  0  0
   18.3152   18.0234   25.6827 H   0  0  0  0  0  0  0  0  0  0  0  0
   19.4719   19.0855   24.2830 C   0  0  0  0  0  0  0  0  0  0  0  0
   18.8820   20.0046   24.3216 H   0  0  0  0  0  0  0  0  0  0  0  0
   19.0489   18.4480   23.5053 H   0  0  0  0  0  0  0  0  0  0  0  0
   20.9384   19.4210   23.9344 C   0  0  0  0  0  0  0  0  0  0  0  0
   21.3309   20.0992   24.7029 H   0  0  0  0  0  0  0  0  0  0  0  0
   21.5559   18.5143   23.9775 H   0  0  0  0  0  0  0  0  0  0  0  0
   21.0976   20.1071   22.5536 C   0  0  0  0  0  0  0  0  0  0  0  0
   22.0092   20.7196   22.5858 H   0  0  0  0  0  0  0  0  0  0  0  0
   20.2768   20.8167   22.3839 H   0  0  0  0  0  0  0  0  0  0  0  0
   21.2396   19.1335   21.3519 C   0  0  0  0  0  0  0  0  0  0  0  0
   21.4545   19.7237   20.4504 H   0  0  0  0  0  0  0  0  0  0  0  0
   22.1246   18.5017   21.5095 H   0  0  0  0  0  0  0  0  0  0  0  0
   20.0228   18.2199   21.0622 C   0  0  0  0  0  0  0  0  0  0  0  0
   19.8554   17.5314   21.9001 H   0  0  0  0  0  0  0  0  0  0  0  0
   20.2663   17.5814   20.2015 H   0  0  0  0  0  0  0  0  0  0  0  0
   18.7284   19.0024   20.7423 C   0  0  0  0  0  0  0  0  0  0  0  0
   18.3899   19.5980   21.5984 H   0  0  0  0  0  0  0  0  0  0  0  0
   17.9172   18.3120   20.4777 H   0  0  0  0  0  0  0  0  0  0  0  0
   18.8801   19.6816   19.8934 H   0  0  0  0  0  0  0  0  0  0  0  0
   19.6204   19.2629   26.7853 C   0  0  0  0  0  0  0  0  0  0  0  0
   20.6700   19.5585   26.7313 H   0  0  0  0  0  0  0  0  0  0  0  0
   18.9829   20.1489   26.7482 H   0  0  0  0  0  0  0  0  0  0  0  0
   19.4403   18.7178   27.7145 H   0  0  0  0  0  0  0  0  0  0  0  0
  1  2  1  0  0  0  0
  1  3  1  0  0  0  0
  1  4  1  0  0  0  0
  4  5  1  0  0  0  0
  4  6  1  0  0  0  0
  4  7  1  0  0  0  0
  7  8  1  0  0  0  0
  7  9  1  0  0  0  0
  7 10  1  0  0  0  0
 10 11  1  0  0  0  0
 10 12  1  0  0  0  0
 10 13  1  0  0  0  0
 13 14  1  0  0  0  0
 13 15  1  0  0  0  0
 13 16  1  0  0  0  0
 16 17  1  0  0  0  0
 16 18  1  0  0  0  0
 16 19  1  0  0  0  0
 19 20  1  0  0  0  0
 19 21  1  0  0  0  0
 19 22  1  0  0  0  0
  1 23  1  0  0  0  0
 23 24  1  0  0  0  0
 23 25  1  0  0  0  0
 23 26  1  0  0  0  0
M  END
> <VM2 Rank>
161

> <Conf_Id>
562

> <Probability>
0.01

> <Sum Probability>
99.89

> <Delta G>
4.026

> <G>
79.492

> <E>
46.319

> <-TS>
33.173

> <U+W>
24.858

> <U>
74.834

> <W>
-49.977

> <W(PB)>
-52.173

> <W(SA)>
2.196

> <Valence>
4.933

> <Coulomb>
69.669

> <VdW>
0.232

> <VdW6>
-8.762

> <VdW12>
8.993

> <Bond>
0.278

> <Angle>
1.765

> <Pdih>
2.890

> <Idih>
0.000

> <Tether>
0.000

$$$$
VeraChem MOL file


 26 25  0  0  0  0  0  0  0  0999 V2000     
   20.7784   18.5102   25.6570 N   0  3  0  0  0  0  0  0  0  0  0  0
   21.7916   18.3794   25.8058 H   0  0  0  0  0  0  0  0  0  0  0  0
   20.3859   17.5562   25.6423 H   0  0  0  0  0  0  0  0  0  0  0  0
   20.5447   19.1953   24.3209 C   0  0  0  0  0  0  0  0  0  0  0  0
   21.1414   18.6622   23.5794 H   0  0  0  0  0  0  0  0  0  0  0  0
   20.9323   20.2144   24.3941 H   0  0  0  0  0  0  0  0  0  0  0  0
   19.0688   19.2296   23.8682 C   0  0  0  0  0  0  0  0  0  0  0  0
   18.6461   18.2164   23.8745 H   0  0  0  0  0  0  0  0  0  0  0  0
   18.4943   19.8088   24.6025 H   0  0  0  0  0  0  0  0  0  0  0  0
   18.8711   19.8791   22.4748 C   0  0  0  0  0  0  0  0  0  0  0  0
   19.5410   20.7414   22.3578 H   0  0  0  0  0  0  0  0  0  0  0  0
   17.8544   20.2943   22.4387 H   0  0  0  0  0  0  0  0  0  0  0  0
   19.0135   18.9056   21.2731 C   0  0  0  0  0  0  0  0  0  0  0  0
   18.2658   18.1067   21.3728 H   0  0  0  0  0  0  0  0  0  0  0  0
   18.7474   19.4466   20.3545 H   0  0  0  0  0  0  0  0  0  0  0  0
   20.4072   18.2593   21.0759 C   0  0  0  0  0  0  0  0  0  0  0  0
   20.3590   17.5910   20.2048 H   0  0  0  0  0  0  0  0  0  0  0  0
   20.6515   17.6129   21.9283 H   0  0  0  0  0  0  0  0  0  0  0  0
   21.5357   19.2898   20.8418 C   0  0  0  0  0  0  0  0  0  0  0  0
   22.4864   18.7798   20.6396 H   0  0  0  0  0  0  0  0  0  0  0  0
   21.6859   19.9353   21.7153 H   0  0  0  0  0  0  0  0  0  0  0  0
   21.3096   19.9304   19.9796 H   0  0  0  0  0  0  0  0  0  0  0  0
   20.1886   19.3211   26.8053 C   0  0  0  0  0  0  0  0  0  0  0  0
   19.1073   19.3985   26.6759 H   0  0  0  0  0  0  0  0  0  0  0  0
   20.4099   18.8171   27.7488 H   0  0  0  0  0  0  0  0  0  0  0  0
   20.6345   20.3180   26.8066 H   0  0  0  0  0  0  0  0  0  0  0  0
  1  2  1  0  0  0  0
  1  3  1  0  0  0  0
  1  4  1  0  0  0  0
  4  5  1  0  0  0  0
  4  6  1  0  0  0  0
  4  7  1  0  0  0  0
  7  8  1  0  0  0  0
  7  9  1  0  0  0  0
  7 10  1  0  0  0  0
 10 11  1  0  0  0  0
 10 12  1  0  0  0  0
 10 13  1  0  0  0  0
 13 14  1  0  0  0  0
 13 15  1  0  0  0  0
 13 16  1  0  0  0  0
 16 17  1  0  0  0  0
 16 18  1  0  0  0  0
 16 19  1  0  0  0  0
 19 20  1  0  0  0  0
 19 21  1  0  0  0  0
 19 22  1  0  0  0  0
  1 23  1  0  0  0  0
 23 24  1  0  0  0  0
 23 25  1  0  0  0  0
 23 26  1  0  0  0  0
M  END
> <VM2 Rank>
162

> <Conf_Id>
445

> <Probability>
0.01

> <Sum Probability>
99.90

> <Delta G>
4.041

> <G>
79.507

> <E>
46.334

> <-TS>
33.173

> <U+W>
24.872

> <U>
74.834

> <W>
-49.962

> <W(PB)>
-52.184

> <W(SA)>
2.222

> <Valence>
4.933

> <Coulomb>
69.669

> <VdW>
0.232

> <VdW6>
-8.762

> <VdW12>
8.994

> <Bond>
0.278

> <Angle>
1.765

> <Pdih>
2.890

> <Idih>
0.000

> <Tether>
0.000

$$$$
VeraChem MOL file


 26 25  0  0  0  0  0  0  0  0999 V2000     
   20.5643   19.3303   25.9899 N   0  3  0  0  0  0  0  0  0  0  0  0
   20.7656   20.2595   25.5915 H   0  0  0  0  0  0  0  0  0  0  0  0
   21.2781   19.1926   26.7230 H   0  0  0  0  0  0  0  0  0  0  0  0
   20.7186   18.2589   24.9216 C   0  0  0  0  0  0  0  0  0  0  0  0
   20.4854   17.2962   25.3834 H   0  0  0  0  0  0  0  0  0  0  0  0
   21.7705   18.2431   24.6253 H   0  0  0  0  0  0  0  0  0  0  0  0
   19.8462   18.4519   23.6619 C   0  0  0  0  0  0  0  0  0  0  0  0
   20.0171   17.5989   22.9959 H   0  0  0  0  0  0  0  0  0  0  0  0
   18.7844   18.4127   23.9374 H   0  0  0  0  0  0  0  0  0  0  0  0
   20.1486   19.7800   22.9222 C   0  0  0  0  0  0  0  0  0  0  0  0
   21.2256   19.8720   22.7250 H   0  0  0  0  0  0  0  0  0  0  0  0
   19.8871   20.6147   23.5862 H   0  0  0  0  0  0  0  0  0  0  0  0
   19.3505   19.9450   21.6024 C   0  0  0  0  0  0  0  0  0  0  0  0
   18.3908   19.4140   21.6676 H   0  0  0  0  0  0  0  0  0  0  0  0
   19.0930   21.0072   21.4886 H   0  0  0  0  0  0  0  0  0  0  0  0
   20.1140   19.5119   20.3245 C   0  0  0  0  0  0  0  0  0  0  0  0
   21.0219   20.1213   20.2136 H   0  0  0  0  0  0  0  0  0  0  0  0
   19.4876   19.7389   19.4505 H   0  0  0  0  0  0  0  0  0  0  0  0
   20.4941   18.0154   20.2855 C   0  0  0  0  0  0  0  0  0  0  0  0
   20.9183   17.7531   19.3076 H   0  0  0  0  0  0  0  0  0  0  0  0
   19.6156   17.3787   20.4515 H   0  0  0  0  0  0  0  0  0  0  0  0
   21.2492   17.7757   21.0442 H   0  0  0  0  0  0  0  0  0  0  0  0
   19.1717   19.2967   26.6090 C   0  0  0  0  0  0  0  0  0  0  0  0
   18.9935   18.3081   27.0376 H   0  0  0  0  0  0  0  0  0  0  0  0
   19.1107   20.0549   27.3928 H   0  0  0  0  0  0  0  0  0  0  0  0
   18.4283   19.5060   25.8371 H   0  0  0  0  0  0  0  0  0  0  0  0
  1  2  1  0  0  0  0
  1  3  1  0  0  0  0
  1  4  1  0  0  0  0
  4  5  1  0  0  0  0
  4  6  1  0  0  0  0
  4  7  1  0  0  0  0
  7  8  1  0  0  0  0
  7  9  1  0  0  0  0
  7 10  1  0  0  0  0
 10 11  1  0  0  0  0
 10 12  1  0  0  0  0
 10 13  1  0  0  0  0
 13 14  1  0  0  0  0
 13 15  1  0  0  0  0
 13 16  1  0  0  0  0
 16 17  1  0  0  0  0
 16 18  1  0  0  0  0
 16 19  1  0  0  0  0
 19 20  1  0  0  0  0
 19 21  1  0  0  0  0
 19 22  1  0  0  0  0
  1 23  1  0  0  0  0
 23 24  1  0  0  0  0
 23 25  1  0  0  0  0
 23 26  1  0  0  0  0
M  END
> <VM2 Rank>
163

> <Conf_Id>
1073

> <Probability>
0.01

> <Sum Probability>
99.91

> <Delta G>
4.045

> <G>
79.511

> <E>
46.660

> <-TS>
32.851

> <U+W>
25.198

> <U>
74.854

> <W>
-49.656

> <W(PB)>
-51.862

> <W(SA)>
2.206

> <Valence>
5.096

> <Coulomb>
69.227

> <VdW>
0.531

> <VdW6>
-8.268

> <VdW12>
8.799

> <Bond>
0.274

> <Angle>
1.324

> <Pdih>
3.498

> <Idih>
0.000

> <Tether>
0.000

$$$$
VeraChem MOL file


 26 25  0  0  0  0  0  0  0  0999 V2000     
   20.3099   19.6459   25.2501 N   0  3  0  0  0  0  0  0  0  0  0  0
   20.9182   20.0091   24.5015 H   0  0  0  0  0  0  0  0  0  0  0  0
   20.9483   19.2688   25.9676 H   0  0  0  0  0  0  0  0  0  0  0  0
   19.4258   18.5402   24.7071 C   0  0  0  0  0  0  0  0  0  0  0  0
   18.7425   18.9752   23.9751 H   0  0  0  0  0  0  0  0  0  0  0  0
   18.8278   18.1581   25.5384 H   0  0  0  0  0  0  0  0  0  0  0  0
   20.2072   17.3781   24.0643 C   0  0  0  0  0  0  0  0  0  0  0  0
   20.8295   16.9048   24.8354 H   0  0  0  0  0  0  0  0  0  0  0  0
   19.4911   16.6103   23.7426 H   0  0  0  0  0  0  0  0  0  0  0  0
   21.1073   17.7717   22.8624 C   0  0  0  0  0  0  0  0  0  0  0  0
   21.6477   16.8666   22.5519 H   0  0  0  0  0  0  0  0  0  0  0  0
   21.8856   18.4807   23.1744 H   0  0  0  0  0  0  0  0  0  0  0  0
   20.3453   18.3151   21.6248 C   0  0  0  0  0  0  0  0  0  0  0  0
   20.9324   18.0686   20.7292 H   0  0  0  0  0  0  0  0  0  0  0  0
   19.3873   17.7894   21.5113 H   0  0  0  0  0  0  0  0  0  0  0  0
   20.1188   19.8468   21.6394 C   0  0  0  0  0  0  0  0  0  0  0  0
   21.0816   20.3628   21.7590 H   0  0  0  0  0  0  0  0  0  0  0  0
   19.4937   20.1411   22.4898 H   0  0  0  0  0  0  0  0  0  0  0  0
   19.4433   20.3318   20.3391 C   0  0  0  0  0  0  0  0  0  0  0  0
   19.2909   21.4187   20.3634 H   0  0  0  0  0  0  0  0  0  0  0  0
   18.4626   19.8574   20.2032 H   0  0  0  0  0  0  0  0  0  0  0  0
   20.0604   20.0984   19.4616 H   0  0  0  0  0  0  0  0  0  0  0  0
   19.4504   20.7603   25.8299 C   0  0  0  0  0  0  0  0  0  0  0  0
   18.8384   20.3570   26.6396 H   0  0  0  0  0  0  0  0  0  0  0  0
   20.0995   21.5494   26.2162 H   0  0  0  0  0  0  0  0  0  0  0  0
   18.8067   21.1632   25.0449 H   0  0  0  0  0  0  0  0  0  0  0  0
  1  2  1  0  0  0  0
  1  3  1  0  0  0  0
  1  4  1  0  0  0  0
  4  5  1  0  0  0  0
  4  6  1  0  0  0  0
  4  7  1  0  0  0  0
  7  8  1  0  0  0  0
  7  9  1  0  0  0  0
  7 10  1  0  0  0  0
 10 11  1  0  0  0  0
 10 12  1  0  0  0  0
 10 13  1  0  0  0  0
 13 14  1  0  0  0  0
 13 15  1  0  0  0  0
 13 16  1  0  0  0  0
 16 17  1  0  0  0  0
 16 18  1  0  0  0  0
 16 19  1  0  0  0  0
 19 20  1  0  0  0  0
 19 21  1  0  0  0  0
 19 22  1  0  0  0  0
  1 23  1  0  0  0  0
 23 24  1  0  0  0  0
 23 25  1  0  0  0  0
 23 26  1  0  0  0  0
M  END
> <VM2 Rank>
164

> <Conf_Id>
713

> <Probability>
0.01

> <Sum Probability>
99.92

> <Delta G>
4.053

> <G>
79.519

> <E>
46.795

> <-TS>
32.725

> <U+W>
25.333

> <U>
74.862

> <W>
-49.529

> <W(PB)>
-51.763

> <W(SA)>
2.234

> <Valence>
4.457

> <Coulomb>
70.609

> <VdW>
-0.205

> <VdW6>
-8.103

> <VdW12>
7.899

> <Bond>
0.231

> <Angle>
1.446

> <Pdih>
2.780

> <Idih>
0.000

> <Tether>
0.000

$$$$
VeraChem MOL file


 26 25  0  0  0  0  0  0  0  0999 V2000     
   19.5464   19.5688   25.2231 N   0  3  0  0  0  0  0  0  0  0  0  0
   18.9475   19.0669   25.8970 H   0  0  0  0  0  0  0  0  0  0  0  0
   18.9317   19.8085   24.4313 H   0  0  0  0  0  0  0  0  0  0  0  0
   20.6691   18.6656   24.7512 C   0  0  0  0  0  0  0  0  0  0  0  0
   21.2715   18.4045   25.6249 H   0  0  0  0  0  0  0  0  0  0  0  0
   21.3014   19.2333   24.0657 H   0  0  0  0  0  0  0  0  0  0  0  0
   20.1821   17.3755   24.0634 C   0  0  0  0  0  0  0  0  0  0  0  0
   21.0576   16.7682   23.7983 H   0  0  0  0  0  0  0  0  0  0  0  0
   19.6141   16.7823   24.7923 H   0  0  0  0  0  0  0  0  0  0  0  0
   19.3082   17.5902   22.7985 C   0  0  0  0  0  0  0  0  0  0  0  0
   18.3842   18.1275   23.0501 H   0  0  0  0  0  0  0  0  0  0  0  0
   18.9825   16.5977   22.4573 H   0  0  0  0  0  0  0  0  0  0  0  0
   20.0315   18.2835   21.6137 C   0  0  0  0  0  0  0  0  0  0  0  0
   21.0808   17.9603   21.5717 H   0  0  0  0  0  0  0  0  0  0  0  0
   19.5699   17.9310   20.6808 H   0  0  0  0  0  0  0  0  0  0  0  0
   19.9462   19.8294   21.6333 C   0  0  0  0  0  0  0  0  0  0  0  0
   20.4385   20.2366   22.5234 H   0  0  0  0  0  0  0  0  0  0  0  0
   18.8937   20.1419   21.6811 H   0  0  0  0  0  0  0  0  0  0  0  0
   20.6011   20.4487   20.3802 C   0  0  0  0  0  0  0  0  0  0  0  0
   20.5313   21.5438   20.4074 H   0  0  0  0  0  0  0  0  0  0  0  0
   20.1063   20.1029   19.4632 H   0  0  0  0  0  0  0  0  0  0  0  0
   21.6638   20.1806   20.3171 H   0  0  0  0  0  0  0  0  0  0  0  0
   20.1236   20.8283   25.8536 C   0  0  0  0  0  0  0  0  0  0  0  0
   20.7271   21.3570   25.1126 H   0  0  0  0  0  0  0  0  0  0  0  0
   19.3047   21.4692   26.1880 H   0  0  0  0  0  0  0  0  0  0  0  0
   20.7457   20.5495   26.7069 H   0  0  0  0  0  0  0  0  0  0  0  0
  1  2  1  0  0  0  0
  1  3  1  0  0  0  0
  1  4  1  0  0  0  0
  4  5  1  0  0  0  0
  4  6  1  0  0  0  0
  4  7  1  0  0  0  0
  7  8  1  0  0  0  0
  7  9  1  0  0  0  0
  7 10  1  0  0  0  0
 10 11  1  0  0  0  0
 10 12  1  0  0  0  0
 10 13  1  0  0  0  0
 13 14  1  0  0  0  0
 13 15  1  0  0  0  0
 13 16  1  0  0  0  0
 16 17  1  0  0  0  0
 16 18  1  0  0  0  0
 16 19  1  0  0  0  0
 19 20  1  0  0  0  0
 19 21  1  0  0  0  0
 19 22  1  0  0  0  0
  1 23  1  0  0  0  0
 23 24  1  0  0  0  0
 23 25  1  0  0  0  0
 23 26  1  0  0  0  0
M  END
> <VM2 Rank>
165

> <Conf_Id>
706

> <Probability>
0.01

> <Sum Probability>
99.92

> <Delta G>
4.056

> <G>
79.522

> <E>
46.797

> <-TS>
32.725

> <U+W>
25.335

> <U>
74.861

> <W>
-49.526

> <W(PB)>
-51.752

> <W(SA)>
2.225

> <Valence>
4.458

> <Coulomb>
70.609

> <VdW>
-0.205

> <VdW6>
-8.103

> <VdW12>
7.898

> <Bond>
0.231

> <Angle>
1.446

> <Pdih>
2.781

> <Idih>
0.000

> <Tether>
0.000

$$$$
VeraChem MOL file


 26 25  0  0  0  0  0  0  0  0999 V2000     
   19.9546   19.1905   26.1220 N   0  3  0  0  0  0  0  0  0  0  0  0
   19.7044   18.2737   26.5235 H   0  0  0  0  0  0  0  0  0  0  0  0
   19.5692   19.8844   26.7822 H   0  0  0  0  0  0  0  0  0  0  0  0
   19.3006   19.3649   24.7617 C   0  0  0  0  0  0  0  0  0  0  0  0
   19.6263   20.3257   24.3570 H   0  0  0  0  0  0  0  0  0  0  0  0
   18.2208   19.4133   24.9236 H   0  0  0  0  0  0  0  0  0  0  0  0
   19.6064   18.2344   23.7559 C   0  0  0  0  0  0  0  0  0  0  0  0
   20.6841   18.1843   23.5703 H   0  0  0  0  0  0  0  0  0  0  0  0
   19.3260   17.2743   24.2087 H   0  0  0  0  0  0  0  0  0  0  0  0
   18.8336   18.3989   22.4223 C   0  0  0  0  0  0  0  0  0  0  0  0
   17.7612   18.4537   22.6560 H   0  0  0  0  0  0  0  0  0  0  0  0
   18.9561   17.4953   21.8095 H   0  0  0  0  0  0  0  0  0  0  0  0
   19.2238   19.6510   21.5895 C   0  0  0  0  0  0  0  0  0  0  0  0
   18.3265   19.9957   21.0570 H   0  0  0  0  0  0  0  0  0  0  0  0
   19.5126   20.4836   22.2435 H   0  0  0  0  0  0  0  0  0  0  0  0
   20.3263   19.4096   20.5267 C   0  0  0  0  0  0  0  0  0  0  0  0
   20.4587   20.3348   19.9485 H   0  0  0  0  0  0  0  0  0  0  0  0
   19.9879   18.6495   19.8087 H   0  0  0  0  0  0  0  0  0  0  0  0
   21.6946   18.9922   21.1086 C   0  0  0  0  0  0  0  0  0  0  0  0
   21.6573   17.9788   21.5260 H   0  0  0  0  0  0  0  0  0  0  0  0
   22.0199   19.6851   21.8954 H   0  0  0  0  0  0  0  0  0  0  0  0
   22.4611   18.9926   20.3229 H   0  0  0  0  0  0  0  0  0  0  0  0
   21.4682   19.3485   26.0303 C   0  0  0  0  0  0  0  0  0  0  0  0
   21.8982   19.2542   27.0299 H   0  0  0  0  0  0  0  0  0  0  0  0
   21.8747   18.5704   25.3813 H   0  0  0  0  0  0  0  0  0  0  0  0
   21.7018   20.3334   25.6200 H   0  0  0  0  0  0  0  0  0  0  0  0
  1  2  1  0  0  0  0
  1  3  1  0  0  0  0
  1  4  1  0  0  0  0
  4  5  1  0  0  0  0
  4  6  1  0  0  0  0
  4  7  1  0  0  0  0
  7  8  1  0  0  0  0
  7  9  1  0  0  0  0
  7 10  1  0  0  0  0
 10 11  1  0  0  0  0
 10 12  1  0  0  0  0
 10 13  1  0  0  0  0
 13 14  1  0  0  0  0
 13 15  1  0  0  0  0
 13 16  1  0  0  0  0
 16 17  1  0  0  0  0
 16 18  1  0  0  0  0
 16 19  1  0  0  0  0
 19 20  1  0  0  0  0
 19 21  1  0  0  0  0
 19 22  1  0  0  0  0
  1 23  1  0  0  0  0
 23 24  1  0  0  0  0
 23 25  1  0  0  0  0
 23 26  1  0  0  0  0
M  END
> <VM2 Rank>
166

> <Conf_Id>
270

> <Probability>
0.01

> <Sum Probability>
99.93

> <Delta G>
4.068

> <G>
79.534

> <E>
46.871

> <-TS>
32.663

> <U+W>
25.409

> <U>
75.162

> <W>
-49.753

> <W(PB)>
-51.930

> <W(SA)>
2.177

> <Valence>
5.357

> <Coulomb>
69.345

> <VdW>
0.460

> <VdW6>
-8.235

> <VdW12>
8.696

> <Bond>
0.287

> <Angle>
1.526

> <Pdih>
3.545

> <Idih>
0.000

> <Tether>
0.000

$$$$
VeraChem MOL file


 26 25  0  0  0  0  0  0  0  0999 V2000     
   19.9741   19.4965   26.0492 N   0  3  0  0  0  0  0  0  0  0  0  0
   19.3119   20.2161   25.7234 H   0  0  0  0  0  0  0  0  0  0  0  0
   20.3808   19.8802   26.9171 H   0  0  0  0  0  0  0  0  0  0  0  0
   21.0744   19.2920   25.0191 C   0  0  0  0  0  0  0  0  0  0  0  0
   21.7438   18.5179   25.4025 H   0  0  0  0  0  0  0  0  0  0  0  0
   21.6409   20.2246   24.9567 H   0  0  0  0  0  0  0  0  0  0  0  0
   20.5934   18.9016   23.6041 C   0  0  0  0  0  0  0  0  0  0  0  0
   21.4833   18.7354   22.9851 H   0  0  0  0  0  0  0  0  0  0  0  0
   20.0531   17.9471   23.6433 H   0  0  0  0  0  0  0  0  0  0  0  0
   19.7071   19.9892   22.9496 C   0  0  0  0  0  0  0  0  0  0  0  0
   20.2863   20.9172   22.8455 H   0  0  0  0  0  0  0  0  0  0  0  0
   18.8677   20.2253   23.6168 H   0  0  0  0  0  0  0  0  0  0  0  0
   19.1199   19.5910   21.5706 C   0  0  0  0  0  0  0  0  0  0  0  0
   18.4497   18.7274   21.6808 H   0  0  0  0  0  0  0  0  0  0  0  0
   18.4808   20.4186   21.2327 H   0  0  0  0  0  0  0  0  0  0  0  0
   20.1737   19.3148   20.4670 C   0  0  0  0  0  0  0  0  0  0  0  0
   21.0860   19.8980   20.6545 H   0  0  0  0  0  0  0  0  0  0  0  0
   19.7779   19.6751   19.5070 H   0  0  0  0  0  0  0  0  0  0  0  0
   20.5167   17.8149   20.3073 C   0  0  0  0  0  0  0  0  0  0  0  0
   21.2527   17.6727   19.5054 H   0  0  0  0  0  0  0  0  0  0  0  0
   19.6227   17.2347   20.0442 H   0  0  0  0  0  0  0  0  0  0  0  0
   20.9377   17.3871   21.2237 H   0  0  0  0  0  0  0  0  0  0  0  0
   19.2487   18.1900   26.3500 C   0  0  0  0  0  0  0  0  0  0  0  0
   19.9708   17.4530   26.7083 H   0  0  0  0  0  0  0  0  0  0  0  0
   18.4930   18.3695   27.1180 H   0  0  0  0  0  0  0  0  0  0  0  0
   18.7678   17.8262   25.4398 H   0  0  0  0  0  0  0  0  0  0  0  0
  1  2  1  0  0  0  0
  1  3  1  0  0  0  0
  1  4  1  0  0  0  0
  4  5  1  0  0  0  0
  4  6  1  0  0  0  0
  4  7  1  0  0  0  0
  7  8  1  0  0  0  0
  7  9  1  0  0  0  0
  7 10  1  0  0  0  0
 10 11  1  0  0  0  0
 10 12  1  0  0  0  0
 10 13  1  0  0  0  0
 13 14  1  0  0  0  0
 13 15  1  0  0  0  0
 13 16  1  0  0  0  0
 16 17  1  0  0  0  0
 16 18  1  0  0  0  0
 16 19  1  0  0  0  0
 19 20  1  0  0  0  0
 19 21  1  0  0  0  0
 19 22  1  0  0  0  0
  1 23  1  0  0  0  0
 23 24  1  0  0  0  0
 23 25  1  0  0  0  0
 23 26  1  0  0  0  0
M  END
> <VM2 Rank>
167

> <Conf_Id>
405

> <Probability>
0.01

> <Sum Probability>
99.94

> <Delta G>
4.068

> <G>
79.534

> <E>
46.742

> <-TS>
32.792

> <U+W>
25.280

> <U>
74.926

> <W>
-49.645

> <W(PB)>
-51.851

> <W(SA)>
2.206

> <Valence>
5.130

> <Coulomb>
69.227

> <VdW>
0.568

> <VdW6>
-8.232

> <VdW12>
8.801

> <Bond>
0.274

> <Angle>
1.422

> <Pdih>
3.434

> <Idih>
0.000

> <Tether>
0.000

$$$$
VeraChem MOL file


 26 25  0  0  0  0  0  0  0  0999 V2000     
   20.3149   18.8406   25.8847 N   0  3  0  0  0  0  0  0  0  0  0  0
   20.8006   18.0858   26.3948 H   0  0  0  0  0  0  0  0  0  0  0  0
   19.4904   19.0645   26.4630 H   0  0  0  0  0  0  0  0  0  0  0  0
   19.8771   18.3333   24.5211 C   0  0  0  0  0  0  0  0  0  0  0  0
   19.3725   17.3764   24.6767 H   0  0  0  0  0  0  0  0  0  0  0  0
   20.7756   18.1500   23.9271 H   0  0  0  0  0  0  0  0  0  0  0  0
   18.9267   19.2816   23.7596 C   0  0  0  0  0  0  0  0  0  0  0  0
   18.0568   19.4977   24.3937 H   0  0  0  0  0  0  0  0  0  0  0  0
   19.4125   20.2462   23.5727 H   0  0  0  0  0  0  0  0  0  0  0  0
   18.4299   18.6785   22.4242 C   0  0  0  0  0  0  0  0  0  0  0  0
   17.7500   19.3942   21.9417 H   0  0  0  0  0  0  0  0  0  0  0  0
   17.8198   17.7922   22.6472 H   0  0  0  0  0  0  0  0  0  0  0  0
   19.5370   18.2704   21.4145 C   0  0  0  0  0  0  0  0  0  0  0  0
   20.1797   17.4867   21.8373 H   0  0  0  0  0  0  0  0  0  0  0  0
   19.0354   17.8009   20.5569 H   0  0  0  0  0  0  0  0  0  0  0  0
   20.3976   19.4423   20.8745 C   0  0  0  0  0  0  0  0  0  0  0  0
   19.7992   20.3623   20.8195 H   0  0  0  0  0  0  0  0  0  0  0  0
   20.6874   19.2096   19.8402 H   0  0  0  0  0  0  0  0  0  0  0  0
   21.6929   19.6918   21.6819 C   0  0  0  0  0  0  0  0  0  0  0  0
   22.2953   20.4755   21.2045 H   0  0  0  0  0  0  0  0  0  0  0  0
   22.3080   18.7840   21.7307 H   0  0  0  0  0  0  0  0  0  0  0  0
   21.4854   20.0180   22.7057 H   0  0  0  0  0  0  0  0  0  0  0  0
   21.2319   20.0515   25.7564 C   0  0  0  0  0  0  0  0  0  0  0  0
   20.6905   20.8655   25.2703 H   0  0  0  0  0  0  0  0  0  0  0  0
   21.5495   20.3659   26.7532 H   0  0  0  0  0  0  0  0  0  0  0  0
   22.1055   19.7784   25.1606 H   0  0  0  0  0  0  0  0  0  0  0  0
  1  2  1  0  0  0  0
  1  3  1  0  0  0  0
  1  4  1  0  0  0  0
  4  5  1  0  0  0  0
  4  6  1  0  0  0  0
  4  7  1  0  0  0  0
  7  8  1  0  0  0  0
  7  9  1  0  0  0  0
  7 10  1  0  0  0  0
 10 11  1  0  0  0  0
 10 12  1  0  0  0  0
 10 13  1  0  0  0  0
 13 14  1  0  0  0  0
 13 15  1  0  0  0  0
 13 16  1  0  0  0  0
 16 17  1  0  0  0  0
 16 18  1  0  0  0  0
 16 19  1  0  0  0  0
 19 20  1  0  0  0  0
 19 21  1  0  0  0  0
 19 22  1  0  0  0  0
  1 23  1  0  0  0  0
 23 24  1  0  0  0  0
 23 25  1  0  0  0  0
 23 26  1  0  0  0  0
M  END
> <VM2 Rank>
168

> <Conf_Id>
464

> <Probability>
0.01

> <Sum Probability>
99.95

> <Delta G>
4.070

> <G>
79.536

> <E>
46.352

> <-TS>
33.184

> <U+W>
24.890

> <U>
75.063

> <W>
-50.173

> <W(PB)>
-52.328

> <W(SA)>
2.155

> <Valence>
5.293

> <Coulomb>
69.832

> <VdW>
-0.063

> <VdW6>
-9.168

> <VdW12>
9.105

> <Bond>
0.277

> <Angle>
1.740

> <Pdih>
3.276

> <Idih>
0.000

> <Tether>
0.000

$$$$
VeraChem MOL file


 26 25  0  0  0  0  0  0  0  0999 V2000     
   19.8456   19.4831   26.0447 N   0  3  0  0  0  0  0  0  0  0  0  0
   19.3087   19.7682   26.8792 H   0  0  0  0  0  0  0  0  0  0  0  0
   20.3658   20.3265   25.7608 H   0  0  0  0  0  0  0  0  0  0  0  0
   18.8861   19.0634   24.9417 C   0  0  0  0  0  0  0  0  0  0  0  0
   18.1450   19.8593   24.8329 H   0  0  0  0  0  0  0  0  0  0  0  0
   18.3658   18.1649   25.2830 H   0  0  0  0  0  0  0  0  0  0  0  0
   19.5352   18.7909   23.5667 C   0  0  0  0  0  0  0  0  0  0  0  0
   20.2565   17.9680   23.6505 H   0  0  0  0  0  0  0  0  0  0  0  0
   18.7442   18.4495   22.8881 H   0  0  0  0  0  0  0  0  0  0  0  0
   20.2219   20.0426   22.9680 C   0  0  0  0  0  0  0  0  0  0  0  0
   20.9459   20.4416   23.6905 H   0  0  0  0  0  0  0  0  0  0  0  0
   19.4727   20.8321   22.8170 H   0  0  0  0  0  0  0  0  0  0  0  0
   20.9735   19.7842   21.6363 C   0  0  0  0  0  0  0  0  0  0  0  0
   21.4505   20.7281   21.3382 H   0  0  0  0  0  0  0  0  0  0  0  0
   21.7978   19.0762   21.7994 H   0  0  0  0  0  0  0  0  0  0  0  0
   20.0789   19.3051   20.4637 C   0  0  0  0  0  0  0  0  0  0  0  0
   20.4581   19.7465   19.5313 H   0  0  0  0  0  0  0  0  0  0  0  0
   19.0552   19.6865   20.5829 H   0  0  0  0  0  0  0  0  0  0  0  0
   20.0643   17.7681   20.2909 C   0  0  0  0  0  0  0  0  0  0  0  0
   19.6775   17.2558   21.1786 H   0  0  0  0  0  0  0  0  0  0  0  0
   21.0748   17.3865   20.0950 H   0  0  0  0  0  0  0  0  0  0  0  0
   19.4311   17.4833   19.4406 H   0  0  0  0  0  0  0  0  0  0  0  0
   20.8025   18.3526   26.4049 C   0  0  0  0  0  0  0  0  0  0  0  0
   21.4107   18.1028   25.5332 H   0  0  0  0  0  0  0  0  0  0  0  0
   21.4493   18.6788   27.2225 H   0  0  0  0  0  0  0  0  0  0  0  0
   20.2251   17.4797   26.7172 H   0  0  0  0  0  0  0  0  0  0  0  0
  1  2  1  0  0  0  0
  1  3  1  0  0  0  0
  1  4  1  0  0  0  0
  4  5  1  0  0  0  0
  4  6  1  0  0  0  0
  4  7  1  0  0  0  0
  7  8  1  0  0  0  0
  7  9  1  0  0  0  0
  7 10  1  0  0  0  0
 10 11  1  0  0  0  0
 10 12  1  0  0  0  0
 10 13  1  0  0  0  0
 13 14  1  0  0  0  0
 13 15  1  0  0  0  0
 13 16  1  0  0  0  0
 16 17  1  0  0  0  0
 16 18  1  0  0  0  0
 16 19  1  0  0  0  0
 19 20  1  0  0  0  0
 19 21  1  0  0  0  0
 19 22  1  0  0  0  0
  1 23  1  0  0  0  0
 23 24  1  0  0  0  0
 23 25  1  0  0  0  0
 23 26  1  0  0  0  0
M  END
> <VM2 Rank>
169

> <Conf_Id>
503

> <Probability>
0.01

> <Sum Probability>
99.95

> <Delta G>
4.092

> <G>
79.558

> <E>
46.766

> <-TS>
32.792

> <U+W>
25.304

> <U>
74.926

> <W>
-49.622

> <W(PB)>
-51.835

> <W(SA)>
2.213

> <Valence>
5.130

> <Coulomb>
69.227

> <VdW>
0.569

> <VdW6>
-8.233

> <VdW12>
8.802

> <Bond>
0.274

> <Angle>
1.422

> <Pdih>
3.434

> <Idih>
0.000

> <Tether>
0.000

$$$$
VeraChem MOL file


 26 25  0  0  0  0  0  0  0  0999 V2000     
   19.6580   18.7742   25.8615 N   0  3  0  0  0  0  0  0  0  0  0  0
   20.3785   19.1545   26.4944 H   0  0  0  0  0  0  0  0  0  0  0  0
   19.2986   17.9341   26.3417 H   0  0  0  0  0  0  0  0  0  0  0  0
   20.2827   18.3743   24.5355 C   0  0  0  0  0  0  0  0  0  0  0  0
   19.4830   18.0193   23.8813 H   0  0  0  0  0  0  0  0  0  0  0  0
   20.9563   17.5365   24.7328 H   0  0  0  0  0  0  0  0  0  0  0  0
   21.0754   19.4988   23.8357 C   0  0  0  0  0  0  0  0  0  0  0  0
   20.4209   20.3482   23.6084 H   0  0  0  0  0  0  0  0  0  0  0  0
   21.8379   19.8799   24.5276 H   0  0  0  0  0  0  0  0  0  0  0  0
   21.7750   19.0167   22.5426 C   0  0  0  0  0  0  0  0  0  0  0  0
   22.5328   18.2687   22.8141 H   0  0  0  0  0  0  0  0  0  0  0  0
   22.3302   19.8572   22.1039 H   0  0  0  0  0  0  0  0  0  0  0  0
   20.8453   18.4027   21.4608 C   0  0  0  0  0  0  0  0  0  0  0  0
   21.4894   18.0490   20.6438 H   0  0  0  0  0  0  0  0  0  0  0  0
   20.3442   17.5033   21.8431 H   0  0  0  0  0  0  0  0  0  0  0  0
   19.8077   19.3826   20.8536 C   0  0  0  0  0  0  0  0  0  0  0  0
   19.6434   19.1039   19.8032 H   0  0  0  0  0  0  0  0  0  0  0  0
   20.2125   20.4040   20.8341 H   0  0  0  0  0  0  0  0  0  0  0  0
   18.4354   19.3625   21.5666 C   0  0  0  0  0  0  0  0  0  0  0  0
   18.0123   18.3497   21.5788 H   0  0  0  0  0  0  0  0  0  0  0  0
   17.7234   20.0132   21.0427 H   0  0  0  0  0  0  0  0  0  0  0  0
   18.5014   19.7165   22.6001 H   0  0  0  0  0  0  0  0  0  0  0  0
   18.5285   19.7781   25.6606 C   0  0  0  0  0  0  0  0  0  0  0  0
   18.0856   20.0157   26.6303 H   0  0  0  0  0  0  0  0  0  0  0  0
   18.9289   20.6873   25.2077 H   0  0  0  0  0  0  0  0  0  0  0  0
   17.7712   19.3399   25.0070 H   0  0  0  0  0  0  0  0  0  0  0  0
  1  2  1  0  0  0  0
  1  3  1  0  0  0  0
  1  4  1  0  0  0  0
  4  5  1  0  0  0  0
  4  6  1  0  0  0  0
  4  7  1  0  0  0  0
  7  8  1  0  0  0  0
  7  9  1  0  0  0  0
  7 10  1  0  0  0  0
 10 11  1  0  0  0  0
 10 12  1  0  0  0  0
 10 13  1  0  0  0  0
 13 14  1  0  0  0  0
 13 15  1  0  0  0  0
 13 16  1  0  0  0  0
 16 17  1  0  0  0  0
 16 18  1  0  0  0  0
 16 19  1  0  0  0  0
 19 20  1  0  0  0  0
 19 21  1  0  0  0  0
 19 22  1  0  0  0  0
  1 23  1  0  0  0  0
 23 24  1  0  0  0  0
 23 25  1  0  0  0  0
 23 26  1  0  0  0  0
M  END
> <VM2 Rank>
170

> <Conf_Id>
462

> <Probability>
0.01

> <Sum Probability>
99.96

> <Delta G>
4.128

> <G>
79.594

> <E>
46.410

> <-TS>
33.184

> <U+W>
24.948

> <U>
75.063

> <W>
-50.114

> <W(PB)>
-52.266

> <W(SA)>
2.151

> <Valence>
5.293

> <Coulomb>
69.832

> <VdW>
-0.063

> <VdW6>
-9.168

> <VdW12>
9.105

> <Bond>
0.277

> <Angle>
1.740

> <Pdih>
3.276

> <Idih>
0.000

> <Tether>
0.000

$$$$
VeraChem MOL file


 26 25  0  0  0  0  0  0  0  0999 V2000     
   20.3518   18.2647   25.8769 N   0  3  0  0  0  0  0  0  0  0  0  0
   21.2285   18.0750   26.3879 H   0  0  0  0  0  0  0  0  0  0  0  0
   20.0454   17.3453   25.5233 H   0  0  0  0  0  0  0  0  0  0  0  0
   20.6331   19.2066   24.7180 C   0  0  0  0  0  0  0  0  0  0  0  0
   21.4986   18.8081   24.1838 H   0  0  0  0  0  0  0  0  0  0  0  0
   20.9100   20.1785   25.1340 H   0  0  0  0  0  0  0  0  0  0  0  0
   19.4591   19.3747   23.7292 C   0  0  0  0  0  0  0  0  0  0  0  0
   19.1527   18.3912   23.3568 H   0  0  0  0  0  0  0  0  0  0  0  0
   18.5940   19.7863   24.2646 H   0  0  0  0  0  0  0  0  0  0  0  0
   19.8034   20.3230   22.5525 C   0  0  0  0  0  0  0  0  0  0  0  0
   20.1391   21.2805   22.9744 H   0  0  0  0  0  0  0  0  0  0  0  0
   18.8915   20.5545   21.9851 H   0  0  0  0  0  0  0  0  0  0  0  0
   20.8984   19.7945   21.5854 C   0  0  0  0  0  0  0  0  0  0  0  0
   21.4702   20.6576   21.2170 H   0  0  0  0  0  0  0  0  0  0  0  0
   21.6253   19.1687   22.1186 H   0  0  0  0  0  0  0  0  0  0  0  0
   20.3590   19.0347   20.3466 C   0  0  0  0  0  0  0  0  0  0  0  0
   21.2089   18.7803   19.6979 H   0  0  0  0  0  0  0  0  0  0  0  0
   19.7155   19.7013   19.7555 H   0  0  0  0  0  0  0  0  0  0  0  0
   19.5870   17.7393   20.6795 C   0  0  0  0  0  0  0  0  0  0  0  0
   20.1750   17.0840   21.3350 H   0  0  0  0  0  0  0  0  0  0  0  0
   19.3616   17.1811   19.7616 H   0  0  0  0  0  0  0  0  0  0  0  0
   18.6310   17.9600   21.1696 H   0  0  0  0  0  0  0  0  0  0  0  0
   19.3162   18.8524   26.8290 C   0  0  0  0  0  0  0  0  0  0  0  0
   18.3720   18.9883   26.2980 H   0  0  0  0  0  0  0  0  0  0  0  0
   19.1706   18.1659   27.6660 H   0  0  0  0  0  0  0  0  0  0  0  0
   19.6753   19.8149   27.1998 H   0  0  0  0  0  0  0  0  0  0  0  0
  1  2  1  0  0  0  0
  1  3  1  0  0  0  0
  1  4  1  0  0  0  0
  4  5  1  0  0  0  0
  4  6  1  0  0  0  0
  4  7  1  0  0  0  0
  7  8  1  0  0  0  0
  7  9  1  0  0  0  0
  7 10  1  0  0  0  0
 10 11  1  0  0  0  0
 10 12  1  0  0  0  0
 10 13  1  0  0  0  0
 13 14  1  0  0  0  0
 13 15  1  0  0  0  0
 13 16  1  0  0  0  0
 16 17  1  0  0  0  0
 16 18  1  0  0  0  0
 16 19  1  0  0  0  0
 19 20  1  0  0  0  0
 19 21  1  0  0  0  0
 19 22  1  0  0  0  0
  1 23  1  0  0  0  0
 23 24  1  0  0  0  0
 23 25  1  0  0  0  0
 23 26  1  0  0  0  0
M  END
> <VM2 Rank>
171

> <Conf_Id>
284

> <Probability>
0.01

> <Sum Probability>
99.97

> <Delta G>
4.269

> <G>
79.735

> <E>
47.027

> <-TS>
32.709

> <U+W>
25.565

> <U>
75.336

> <W>
-49.771

> <W(PB)>
-51.993

> <W(SA)>
2.221

> <Valence>
5.408

> <Coulomb>
69.356

> <VdW>
0.572

> <VdW6>
-8.078

> <VdW12>
8.650

> <Bond>
0.286

> <Angle>
1.497

> <Pdih>
3.625

> <Idih>
0.000

> <Tether>
0.000

$$$$
VeraChem MOL file


 26 25  0  0  0  0  0  0  0  0999 V2000     
   20.2288   19.2500   25.6958 N   0  3  0  0  0  0  0  0  0  0  0  0
   20.8331   19.9706   25.2731 H   0  0  0  0  0  0  0  0  0  0  0  0
   20.8692   18.5919   26.1663 H   0  0  0  0  0  0  0  0  0  0  0  0
   19.4457   18.5324   24.6140 C   0  0  0  0  0  0  0  0  0  0  0  0
   18.7807   19.2589   24.1418 H   0  0  0  0  0  0  0  0  0  0  0  0
   18.8264   17.7753   25.1017 H   0  0  0  0  0  0  0  0  0  0  0  0
   20.3290   17.8570   23.5440 C   0  0  0  0  0  0  0  0  0  0  0  0
   20.9385   17.0823   24.0278 H   0  0  0  0  0  0  0  0  0  0  0  0
   19.6780   17.3257   22.8420 H   0  0  0  0  0  0  0  0  0  0  0  0
   21.2679   18.8309   22.7802 C   0  0  0  0  0  0  0  0  0  0  0  0
   21.8866   18.2623   22.0724 H   0  0  0  0  0  0  0  0  0  0  0  0
   21.9769   19.2623   23.4993 H   0  0  0  0  0  0  0  0  0  0  0  0
   20.5594   19.9935   22.0309 C   0  0  0  0  0  0  0  0  0  0  0  0
   19.6787   20.3424   22.5844 H   0  0  0  0  0  0  0  0  0  0  0  0
   21.2478   20.8498   22.0136 H   0  0  0  0  0  0  0  0  0  0  0  0
   20.1723   19.6893   20.5609 C   0  0  0  0  0  0  0  0  0  0  0  0
   21.0746   19.4455   19.9828 H   0  0  0  0  0  0  0  0  0  0  0  0
   19.7660   20.6077   20.1144 H   0  0  0  0  0  0  0  0  0  0  0  0
   19.1331   18.5599   20.3911 C   0  0  0  0  0  0  0  0  0  0  0  0
   19.5708   17.5798   20.6143 H   0  0  0  0  0  0  0  0  0  0  0  0
   18.7720   18.5250   19.3551 H   0  0  0  0  0  0  0  0  0  0  0  0
   18.2649   18.7160   21.0444 H   0  0  0  0  0  0  0  0  0  0  0  0
   19.2718   19.8768   26.7000 C   0  0  0  0  0  0  0  0  0  0  0  0
   18.6270   20.5914   26.1838 H   0  0  0  0  0  0  0  0  0  0  0  0
   18.6642   19.0916   27.1552 H   0  0  0  0  0  0  0  0  0  0  0  0
   19.8487   20.3909   27.4720 H   0  0  0  0  0  0  0  0  0  0  0  0
  1  2  1  0  0  0  0
  1  3  1  0  0  0  0
  1  4  1  0  0  0  0
  4  5  1  0  0  0  0
  4  6  1  0  0  0  0
  4  7  1  0  0  0  0
  7  8  1  0  0  0  0
  7  9  1  0  0  0  0
  7 10  1  0  0  0  0
 10 11  1  0  0  0  0
 10 12  1  0  0  0  0
 10 13  1  0  0  0  0
 13 14  1  0  0  0  0
 13 15  1  0  0  0  0
 13 16  1  0  0  0  0
 16 17  1  0  0  0  0
 16 18  1  0  0  0  0
 16 19  1  0  0  0  0
 19 20  1  0  0  0  0
 19 21  1  0  0  0  0
 19 22  1  0  0  0  0
  1 23  1  0  0  0  0
 23 24  1  0  0  0  0
 23 25  1  0  0  0  0
 23 26  1  0  0  0  0
M  END
> <VM2 Rank>
172

> <Conf_Id>
1080

> <Probability>
0.01

> <Sum Probability>
99.97

> <Delta G>
4.278

> <G>
79.744

> <E>
47.306

> <-TS>
32.437

> <U+W>
25.845

> <U>
75.362

> <W>
-49.518

> <W(PB)>
-51.734

> <W(SA)>
2.216

> <Valence>
5.261

> <Coulomb>
69.862

> <VdW>
0.240

> <VdW6>
-8.241

> <VdW12>
8.481

> <Bond>
0.287

> <Angle>
1.775

> <Pdih>
3.199

> <Idih>
0.000

> <Tether>
0.000

$$$$
VeraChem MOL file


 26 25  0  0  0  0  0  0  0  0999 V2000     
   18.9812   19.3542   25.0074 N   0  3  0  0  0  0  0  0  0  0  0  0
   17.9824   19.1109   25.1021 H   0  0  0  0  0  0  0  0  0  0  0  0
   19.0193   20.0655   24.2626 H   0  0  0  0  0  0  0  0  0  0  0  0
   19.7700   18.1231   24.5895 C   0  0  0  0  0  0  0  0  0  0  0  0
   19.2575   17.6719   23.7376 H   0  0  0  0  0  0  0  0  0  0  0  0
   19.7281   17.4088   25.4157 H   0  0  0  0  0  0  0  0  0  0  0  0
   21.2442   18.3859   24.2131 C   0  0  0  0  0  0  0  0  0  0  0  0
   21.7850   18.7131   25.1105 H   0  0  0  0  0  0  0  0  0  0  0  0
   21.7057   17.4337   23.9201 H   0  0  0  0  0  0  0  0  0  0  0  0
   21.4664   19.4301   23.0863 C   0  0  0  0  0  0  0  0  0  0  0  0
   22.5504   19.5898   23.0027 H   0  0  0  0  0  0  0  0  0  0  0  0
   21.0514   20.4055   23.3730 H   0  0  0  0  0  0  0  0  0  0  0  0
   20.9447   19.0086   21.6872 C   0  0  0  0  0  0  0  0  0  0  0  0
   21.5487   19.5280   20.9302 H   0  0  0  0  0  0  0  0  0  0  0  0
   21.1196   17.9356   21.5278 H   0  0  0  0  0  0  0  0  0  0  0  0
   19.4578   19.3531   21.4292 C   0  0  0  0  0  0  0  0  0  0  0  0
   19.2879   20.4235   21.6106 H   0  0  0  0  0  0  0  0  0  0  0  0
   18.8060   18.8054   22.1187 H   0  0  0  0  0  0  0  0  0  0  0  0
   19.0405   19.0130   19.9825 C   0  0  0  0  0  0  0  0  0  0  0  0
   19.6389   19.5769   19.2550 H   0  0  0  0  0  0  0  0  0  0  0  0
   17.9848   19.2625   19.8145 H   0  0  0  0  0  0  0  0  0  0  0  0
   19.1705   17.9427   19.7755 H   0  0  0  0  0  0  0  0  0  0  0  0
   19.5032   19.9220   26.3220 C   0  0  0  0  0  0  0  0  0  0  0  0
   19.4366   19.1541   27.0957 H   0  0  0  0  0  0  0  0  0  0  0  0
   20.5427   20.2306   26.1942 H   0  0  0  0  0  0  0  0  0  0  0  0
   18.8958   20.7845   26.6052 H   0  0  0  0  0  0  0  0  0  0  0  0
  1  2  1  0  0  0  0
  1  3  1  0  0  0  0
  1  4  1  0  0  0  0
  4  5  1  0  0  0  0
  4  6  1  0  0  0  0
  4  7  1  0  0  0  0
  7  8  1  0  0  0  0
  7  9  1  0  0  0  0
  7 10  1  0  0  0  0
 10 11  1  0  0  0  0
 10 12  1  0  0  0  0
 10 13  1  0  0  0  0
 13 14  1  0  0  0  0
 13 15  1  0  0  0  0
 13 16  1  0  0  0  0
 16 17  1  0  0  0  0
 16 18  1  0  0  0  0
 16 19  1  0  0  0  0
 19 20  1  0  0  0  0
 19 21  1  0  0  0  0
 19 22  1  0  0  0  0
  1 23  1  0  0  0  0
 23 24  1  0  0  0  0
 23 25  1  0  0  0  0
 23 26  1  0  0  0  0
M  END
> <VM2 Rank>
173

> <Conf_Id>
1574

> <Probability>
0.01

> <Sum Probability>
99.98

> <Delta G>
4.290

> <G>
79.756

> <E>
46.886

> <-TS>
32.869

> <U+W>
25.424

> <U>
75.499

> <W>
-50.074

> <W(PB)>
-52.287

> <W(SA)>
2.213

> <Valence>
4.692

> <Coulomb>
70.717

> <VdW>
0.090

> <VdW6>
-8.740

> <VdW12>
8.830

> <Bond>
0.270

> <Angle>
1.624

> <Pdih>
2.799

> <Idih>
0.000

> <Tether>
0.000

$$$$
VeraChem MOL file


 26 25  0  0  0  0  0  0  0  0999 V2000     
   20.9196   19.5511   25.0761 N   0  3  0  0  0  0  0  0  0  0  0  0
   20.7919   20.2455   24.3254 H   0  0  0  0  0  0  0  0  0  0  0  0
   21.9378   19.5126   25.2425 H   0  0  0  0  0  0  0  0  0  0  0  0
   20.4255   18.1897   24.6128 C   0  0  0  0  0  0  0  0  0  0  0  0
   20.5519   17.4925   25.4449 H   0  0  0  0  0  0  0  0  0  0  0  0
   21.0766   17.8566   23.8022 H   0  0  0  0  0  0  0  0  0  0  0  0
   18.9586   18.1536   24.1321 C   0  0  0  0  0  0  0  0  0  0  0  0
   18.7195   17.1303   23.8141 H   0  0  0  0  0  0  0  0  0  0  0  0
   18.3015   18.3591   24.9870 H   0  0  0  0  0  0  0  0  0  0  0  0
   18.6107   19.1400   22.9851 C   0  0  0  0  0  0  0  0  0  0  0  0
   18.8003   20.1768   23.2933 H   0  0  0  0  0  0  0  0  0  0  0  0
   17.5253   19.0795   22.8246 H   0  0  0  0  0  0  0  0  0  0  0  0
   19.3031   18.8419   21.6289 C   0  0  0  0  0  0  0  0  0  0  0  0
   19.3587   17.7569   21.4653 H   0  0  0  0  0  0  0  0  0  0  0  0
   18.6617   19.2351   20.8279 H   0  0  0  0  0  0  0  0  0  0  0  0
   20.7050   19.4796   21.4734 C   0  0  0  0  0  0  0  0  0  0  0  0
   21.4035   19.0687   22.2106 H   0  0  0  0  0  0  0  0  0  0  0  0
   20.6436   20.5609   21.6590 H   0  0  0  0  0  0  0  0  0  0  0  0
   21.2822   19.2408   20.0618 C   0  0  0  0  0  0  0  0  0  0  0  0
   21.3844   18.1678   19.8536 H   0  0  0  0  0  0  0  0  0  0  0  0
   22.2756   19.6982   19.9666 H   0  0  0  0  0  0  0  0  0  0  0  0
   20.6353   19.6786   19.2904 H   0  0  0  0  0  0  0  0  0  0  0  0
   20.2033   19.9932   26.3467 C   0  0  0  0  0  0  0  0  0  0  0  0
   20.3682   19.2488   27.1287 H   0  0  0  0  0  0  0  0  0  0  0  0
   20.6037   20.9581   26.6657 H   0  0  0  0  0  0  0  0  0  0  0  0
   19.1346   20.0877   26.1441 H   0  0  0  0  0  0  0  0  0  0  0  0
  1  2  1  0  0  0  0
  1  3  1  0  0  0  0
  1  4  1  0  0  0  0
  4  5  1  0  0  0  0
  4  6  1  0  0  0  0
  4  7  1  0  0  0  0
  7  8  1  0  0  0  0
  7  9  1  0  0  0  0
  7 10  1  0  0  0  0
 10 11  1  0  0  0  0
 10 12  1  0  0  0  0
 10 13  1  0  0  0  0
 13 14  1  0  0  0  0
 13 15  1  0  0  0  0
 13 16  1  0  0  0  0
 16 17  1  0  0  0  0
 16 18  1  0  0  0  0
 16 19  1  0  0  0  0
 19 20  1  0  0  0  0
 19 21  1  0  0  0  0
 19 22  1  0  0  0  0
  1 23  1  0  0  0  0
 23 24  1  0  0  0  0
 23 25  1  0  0  0  0
 23 26  1  0  0  0  0
M  END
> <VM2 Rank>
174

> <Conf_Id>
280

> <Probability>
0.00

> <Sum Probability>
99.98

> <Delta G>
4.388

> <G>
79.854

> <E>
46.985

> <-TS>
32.869

> <U+W>
25.523

> <U>
75.499

> <W>
-49.976

> <W(PB)>
-52.163

> <W(SA)>
2.187

> <Valence>
4.692

> <Coulomb>
70.717

> <VdW>
0.090

> <VdW6>
-8.740

> <VdW12>
8.830

> <Bond>
0.270

> <Angle>
1.624

> <Pdih>
2.798

> <Idih>
0.000

> <Tether>
0.000

$$$$
VeraChem MOL file


 26 25  0  0  0  0  0  0  0  0999 V2000     
   20.1359   19.2905   25.5461 N   0  3  0  0  0  0  0  0  0  0  0  0
   20.8961   19.8802   25.1754 H   0  0  0  0  0  0  0  0  0  0  0  0
   20.5950   18.6019   26.1623 H   0  0  0  0  0  0  0  0  0  0  0  0
   19.4291   18.5819   24.4076 C   0  0  0  0  0  0  0  0  0  0  0  0
   18.9503   19.3416   23.7855 H   0  0  0  0  0  0  0  0  0  0  0  0
   18.6468   17.9544   24.8421 H   0  0  0  0  0  0  0  0  0  0  0  0
   20.3626   17.7126   23.5402 C   0  0  0  0  0  0  0  0  0  0  0  0
   20.8141   16.9349   24.1702 H   0  0  0  0  0  0  0  0  0  0  0  0
   19.7670   17.1764   22.7914 H   0  0  0  0  0  0  0  0  0  0  0  0
   21.4883   18.5105   22.8346 C   0  0  0  0  0  0  0  0  0  0  0  0
   22.0732   17.8200   22.2115 H   0  0  0  0  0  0  0  0  0  0  0  0
   22.1892   18.8831   23.5936 H   0  0  0  0  0  0  0  0  0  0  0  0
   21.0239   19.7085   21.9621 C   0  0  0  0  0  0  0  0  0  0  0  0
   20.4955   20.4543   22.5708 H   0  0  0  0  0  0  0  0  0  0  0  0
   21.9296   20.2172   21.6040 H   0  0  0  0  0  0  0  0  0  0  0  0
   20.1769   19.3270   20.7201 C   0  0  0  0  0  0  0  0  0  0  0  0
   20.4972   18.3536   20.3234 H   0  0  0  0  0  0  0  0  0  0  0  0
   20.3828   20.0580   19.9255 H   0  0  0  0  0  0  0  0  0  0  0  0
   18.6515   19.3268   20.9752 C   0  0  0  0  0  0  0  0  0  0  0  0
   18.3505   18.5502   21.6856 H   0  0  0  0  0  0  0  0  0  0  0  0
   18.1086   19.1410   20.0394 H   0  0  0  0  0  0  0  0  0  0  0  0
   18.3168   20.2965   21.3658 H   0  0  0  0  0  0  0  0  0  0  0  0
   19.1399   20.1323   26.3311 C   0  0  0  0  0  0  0  0  0  0  0  0
   19.6622   20.6377   27.1465 H   0  0  0  0  0  0  0  0  0  0  0  0
   18.6918   20.8728   25.6648 H   0  0  0  0  0  0  0  0  0  0  0  0
   18.3625   19.4820   26.7380 H   0  0  0  0  0  0  0  0  0  0  0  0
  1  2  1  0  0  0  0
  1  3  1  0  0  0  0
  1  4  1  0  0  0  0
  4  5  1  0  0  0  0
  4  6  1  0  0  0  0
  4  7  1  0  0  0  0
  7  8  1  0  0  0  0
  7  9  1  0  0  0  0
  7 10  1  0  0  0  0
 10 11  1  0  0  0  0
 10 12  1  0  0  0  0
 10 13  1  0  0  0  0
 13 14  1  0  0  0  0
 13 15  1  0  0  0  0
 13 16  1  0  0  0  0
 16 17  1  0  0  0  0
 16 18  1  0  0  0  0
 16 19  1  0  0  0  0
 19 20  1  0  0  0  0
 19 21  1  0  0  0  0
 19 22  1  0  0  0  0
  1 23  1  0  0  0  0
 23 24  1  0  0  0  0
 23 25  1  0  0  0  0
 23 26  1  0  0  0  0
M  END
> <VM2 Rank>
175

> <Conf_Id>
1116

> <Probability>
0.00

> <Sum Probability>
99.98

> <Delta G>
4.478

> <G>
79.944

> <E>
46.915

> <-TS>
33.028

> <U+W>
25.454

> <U>
75.077

> <W>
-49.624

> <W(PB)>
-51.822

> <W(SA)>
2.198

> <Valence>
5.122

> <Coulomb>
70.113

> <VdW>
-0.157

> <VdW6>
-8.845

> <VdW12>
8.687

> <Bond>
0.261

> <Angle>
1.746

> <Pdih>
3.115

> <Idih>
0.000

> <Tether>
0.000

$$$$
VeraChem MOL file


 26 25  0  0  0  0  0  0  0  0999 V2000     
   19.4833   18.2869   24.9121 N   0  3  0  0  0  0  0  0  0  0  0  0
   19.4533   17.4171   25.4677 H   0  0  0  0  0  0  0  0  0  0  0  0
   19.3952   17.9900   23.9295 H   0  0  0  0  0  0  0  0  0  0  0  0
   20.8171   18.9831   25.1272 C   0  0  0  0  0  0  0  0  0  0  0  0
   21.6023   18.2236   25.0939 H   0  0  0  0  0  0  0  0  0  0  0  0
   20.7993   19.4015   26.1367 H   0  0  0  0  0  0  0  0  0  0  0  0
   21.1545   20.1014   24.1145 C   0  0  0  0  0  0  0  0  0  0  0  0
   20.2841   20.7471   23.9465 H   0  0  0  0  0  0  0  0  0  0  0  0
   21.9118   20.7478   24.5773 H   0  0  0  0  0  0  0  0  0  0  0  0
   21.7335   19.5909   22.7675 C   0  0  0  0  0  0  0  0  0  0  0  0
   22.6697   19.0518   22.9683 H   0  0  0  0  0  0  0  0  0  0  0  0
   22.0162   20.4597   22.1570 H   0  0  0  0  0  0  0  0  0  0  0  0
   20.8070   18.6748   21.9277 C   0  0  0  0  0  0  0  0  0  0  0  0
   21.3500   18.3798   21.0190 H   0  0  0  0  0  0  0  0  0  0  0  0
   20.6104   17.7399   22.4664 H   0  0  0  0  0  0  0  0  0  0  0  0
   19.4783   19.3494   21.5106 C   0  0  0  0  0  0  0  0  0  0  0  0
   19.6937   20.2675   20.9461 H   0  0  0  0  0  0  0  0  0  0  0  0
   18.9038   19.6535   22.3942 H   0  0  0  0  0  0  0  0  0  0  0  0
   18.6101   18.4104   20.6467 C   0  0  0  0  0  0  0  0  0  0  0  0
   18.3493   17.4955   21.1943 H   0  0  0  0  0  0  0  0  0  0  0  0
   19.1362   18.1201   19.7279 H   0  0  0  0  0  0  0  0  0  0  0  0
   17.6749   18.9061   20.3556 H   0  0  0  0  0  0  0  0  0  0  0  0
   18.3242   19.1930   25.3108 C   0  0  0  0  0  0  0  0  0  0  0  0
   18.3359   20.0917   24.6913 H   0  0  0  0  0  0  0  0  0  0  0  0
   17.3842   18.6567   25.1633 H   0  0  0  0  0  0  0  0  0  0  0  0
   18.4301   19.4676   26.3626 H   0  0  0  0  0  0  0  0  0  0  0  0
  1  2  1  0  0  0  0
  1  3  1  0  0  0  0
  1  4  1  0  0  0  0
  4  5  1  0  0  0  0
  4  6  1  0  0  0  0
  4  7  1  0  0  0  0
  7  8  1  0  0  0  0
  7  9  1  0  0  0  0
  7 10  1  0  0  0  0
 10 11  1  0  0  0  0
 10 12  1  0  0  0  0
 10 13  1  0  0  0  0
 13 14  1  0  0  0  0
 13 15  1  0  0  0  0
 13 16  1  0  0  0  0
 16 17  1  0  0  0  0
 16 18  1  0  0  0  0
 16 19  1  0  0  0  0
 19 20  1  0  0  0  0
 19 21  1  0  0  0  0
 19 22  1  0  0  0  0
  1 23  1  0  0  0  0
 23 24  1  0  0  0  0
 23 25  1  0  0  0  0
 23 26  1  0  0  0  0
M  END
> <VM2 Rank>
176

> <Conf_Id>
556

> <Probability>
0.00

> <Sum Probability>
99.99

> <Delta G>
4.874

> <G>
80.340

> <E>
47.027

> <-TS>
33.313

> <U+W>
25.566

> <U>
74.993

> <W>
-49.427

> <W(PB)>
-51.599

> <W(SA)>
2.172

> <Valence>
4.235

> <Coulomb>
71.017

> <VdW>
-0.259

> <VdW6>
-9.385

> <VdW12>
9.126

> <Bond>
0.262

> <Angle>
1.598

> <Pdih>
2.376

> <Idih>
0.000

> <Tether>
0.000

$$$$
VeraChem MOL file


 26 25  0  0  0  0  0  0  0  0999 V2000     
   20.6778   18.6679   25.5066 N   0  3  0  0  0  0  0  0  0  0  0  0
   20.9596   17.8848   24.8986 H   0  0  0  0  0  0  0  0  0  0  0  0
   20.9753   18.3909   26.4555 H   0  0  0  0  0  0  0  0  0  0  0  0
   19.1682   18.8373   25.4826 C   0  0  0  0  0  0  0  0  0  0  0  0
   18.9395   19.8750   25.7378 H   0  0  0  0  0  0  0  0  0  0  0  0
   18.7711   18.2067   26.2822 H   0  0  0  0  0  0  0  0  0  0  0  0
   18.4546   18.4412   24.1682 C   0  0  0  0  0  0  0  0  0  0  0  0
   18.6173   17.3759   23.9580 H   0  0  0  0  0  0  0  0  0  0  0  0
   17.3759   18.5467   24.3450 H   0  0  0  0  0  0  0  0  0  0  0  0
   18.8250   19.2997   22.9320 C   0  0  0  0  0  0  0  0  0  0  0  0
   19.0432   20.3303   23.2434 H   0  0  0  0  0  0  0  0  0  0  0  0
   17.9454   19.3626   22.2763 H   0  0  0  0  0  0  0  0  0  0  0  0
   19.9981   18.7156   22.1068 C   0  0  0  0  0  0  0  0  0  0  0  0
   20.8816   18.5730   22.7393 H   0  0  0  0  0  0  0  0  0  0  0  0
   19.7194   17.7206   21.7330 H   0  0  0  0  0  0  0  0  0  0  0  0
   20.3684   19.6246   20.9139 C   0  0  0  0  0  0  0  0  0  0  0  0
   20.6464   20.6229   21.2803 H   0  0  0  0  0  0  0  0  0  0  0  0
   19.4929   19.7586   20.2631 H   0  0  0  0  0  0  0  0  0  0  0  0
   21.5350   19.0397   20.0894 C   0  0  0  0  0  0  0  0  0  0  0  0
   21.7828   19.6986   19.2471 H   0  0  0  0  0  0  0  0  0  0  0  0
   21.2749   18.0545   19.6810 H   0  0  0  0  0  0  0  0  0  0  0  0
   22.4367   18.9273   20.7054 H   0  0  0  0  0  0  0  0  0  0  0  0
   21.3809   19.9639   25.1174 C   0  0  0  0  0  0  0  0  0  0  0  0
   21.0975   20.7492   25.8214 H   0  0  0  0  0  0  0  0  0  0  0  0
   22.4615   19.8092   25.1547 H   0  0  0  0  0  0  0  0  0  0  0  0
   21.0849   20.2512   24.1073 H   0  0  0  0  0  0  0  0  0  0  0  0
  1  2  1  0  0  0  0
  1  3  1  0  0  0  0
  1  4  1  0  0  0  0
  4  5  1  0  0  0  0
  4  6  1  0  0  0  0
  4  7  1  0  0  0  0
  7  8  1  0  0  0  0
  7  9  1  0  0  0  0
  7 10  1  0  0  0  0
 10 11  1  0  0  0  0
 10 12  1  0  0  0  0
 10 13  1  0  0  0  0
 13 14  1  0  0  0  0
 13 15  1  0  0  0  0
 13 16  1  0  0  0  0
 16 17  1  0  0  0  0
 16 18  1  0  0  0  0
 16 19  1  0  0  0  0
 19 20  1  0  0  0  0
 19 21  1  0  0  0  0
 19 22  1  0  0  0  0
  1 23  1  0  0  0  0
 23 24  1  0  0  0  0
 23 25  1  0  0  0  0
 23 26  1  0  0  0  0
M  END
> <VM2 Rank>
177

> <Conf_Id>
253

> <Probability>
0.00

> <Sum Probability>
99.99

> <Delta G>
4.892

> <G>
80.358

> <E>
47.446

> <-TS>
32.911

> <U+W>
25.985

> <U>
76.026

> <W>
-50.041

> <W(PB)>
-52.258

> <W(SA)>
2.217

> <Valence>
5.957

> <Coulomb>
70.111

> <VdW>
-0.042

> <VdW6>
-8.365

> <VdW12>
8.323

> <Bond>
0.228

> <Angle>
1.343

> <Pdih>
4.386

> <Idih>
0.000

> <Tether>
0.000

$$$$
VeraChem MOL file


 26 25  0  0  0  0  0  0  0  0999 V2000     
   19.2303   19.1818   25.0137 N   0  3  0  0  0  0  0  0  0  0  0  0
   18.5408   18.4400   24.8173 H   0  0  0  0  0  0  0  0  0  0  0  0
   19.1151   19.8759   24.2614 H   0  0  0  0  0  0  0  0  0  0  0  0
   20.6335   18.6094   24.9787 C   0  0  0  0  0  0  0  0  0  0  0  0
   20.6807   17.8364   25.7499 H   0  0  0  0  0  0  0  0  0  0  0  0
   21.3355   19.4019   25.2499 H   0  0  0  0  0  0  0  0  0  0  0  0
   21.0415   17.9953   23.6228 C   0  0  0  0  0  0  0  0  0  0  0  0
   21.8804   17.3120   23.8095 H   0  0  0  0  0  0  0  0  0  0  0  0
   20.2321   17.3677   23.2290 H   0  0  0  0  0  0  0  0  0  0  0  0
   21.5063   19.0326   22.5659 C   0  0  0  0  0  0  0  0  0  0  0  0
   21.9123   18.4929   21.6999 H   0  0  0  0  0  0  0  0  0  0  0  0
   22.3529   19.5997   22.9771 H   0  0  0  0  0  0  0  0  0  0  0  0
   20.4307   20.0379   22.0740 C   0  0  0  0  0  0  0  0  0  0  0  0
   20.1496   20.7092   22.8948 H   0  0  0  0  0  0  0  0  0  0  0  0
   20.8887   20.6893   21.3167 H   0  0  0  0  0  0  0  0  0  0  0  0
   19.1568   19.3971   21.4650 C   0  0  0  0  0  0  0  0  0  0  0  0
   18.4646   20.2001   21.1751 H   0  0  0  0  0  0  0  0  0  0  0  0
   18.6271   18.7990   22.2171 H   0  0  0  0  0  0  0  0  0  0  0  0
   19.4475   18.5219   20.2249 C   0  0  0  0  0  0  0  0  0  0  0  0
   20.0474   17.6412   20.4858 H   0  0  0  0  0  0  0  0  0  0  0  0
   19.9880   19.0912   19.4576 H   0  0  0  0  0  0  0  0  0  0  0  0
   18.5108   18.1633   19.7789 H   0  0  0  0  0  0  0  0  0  0  0  0
   18.9614   19.8139   26.3720 C   0  0  0  0  0  0  0  0  0  0  0  0
   19.6836   20.6148   26.5448 H   0  0  0  0  0  0  0  0  0  0  0  0
   17.9482   20.2217   26.3834 H   0  0  0  0  0  0  0  0  0  0  0  0
   19.0611   19.0521   27.1483 H   0  0  0  0  0  0  0  0  0  0  0  0
  1  2  1  0  0  0  0
  1  3  1  0  0  0  0
  1  4  1  0  0  0  0
  4  5  1  0  0  0  0
  4  6  1  0  0  0  0
  4  7  1  0  0  0  0
  7  8  1  0  0  0  0
  7  9  1  0  0  0  0
  7 10  1  0  0  0  0
 10 11  1  0  0  0  0
 10 12  1  0  0  0  0
 10 13  1  0  0  0  0
 13 14  1  0  0  0  0
 13 15  1  0  0  0  0
 13 16  1  0  0  0  0
 16 17  1  0  0  0  0
 16 18  1  0  0  0  0
 16 19  1  0  0  0  0
 19 20  1  0  0  0  0
 19 21  1  0  0  0  0
 19 22  1  0  0  0  0
  1 23  1  0  0  0  0
 23 24  1  0  0  0  0
 23 25  1  0  0  0  0
 23 26  1  0  0  0  0
M  END
> <VM2 Rank>
178

> <Conf_Id>
176

> <Probability>
0.00

> <Sum Probability>
99.99

> <Delta G>
5.110

> <G>
80.576

> <E>
47.453

> <-TS>
33.124

> <U+W>
25.991

> <U>
75.257

> <W>
-49.266

> <W(PB)>
-51.475

> <W(SA)>
2.209

> <Valence>
4.258

> <Coulomb>
71.252

> <VdW>
-0.253

> <VdW6>
-9.003

> <VdW12>
8.750

> <Bond>
0.262

> <Angle>
1.778

> <Pdih>
2.218

> <Idih>
0.000

> <Tether>
0.000

$$$$
VeraChem MOL file


 26 25  0  0  0  0  0  0  0  0999 V2000     
   20.7167   18.3836   25.1611 N   0  3  0  0  0  0  0  0  0  0  0  0
   21.6892   18.0841   25.3350 H   0  0  0  0  0  0  0  0  0  0  0  0
   20.3022   17.6369   24.5848 H   0  0  0  0  0  0  0  0  0  0  0  0
   20.7187   19.6981   24.3958 C   0  0  0  0  0  0  0  0  0  0  0  0
   21.4150   19.5886   23.5630 H   0  0  0  0  0  0  0  0  0  0  0  0
   21.1177   20.4644   25.0651 H   0  0  0  0  0  0  0  0  0  0  0  0
   19.3401   20.1510   23.8615 C   0  0  0  0  0  0  0  0  0  0  0  0
   18.6498   20.2450   24.7094 H   0  0  0  0  0  0  0  0  0  0  0  0
   19.4301   21.1616   23.4422 H   0  0  0  0  0  0  0  0  0  0  0  0
   18.7139   19.2033   22.8033 C   0  0  0  0  0  0  0  0  0  0  0  0
   17.6232   19.3278   22.8489 H   0  0  0  0  0  0  0  0  0  0  0  0
   18.8933   18.1526   23.0624 H   0  0  0  0  0  0  0  0  0  0  0  0
   19.1454   19.4869   21.3387 C   0  0  0  0  0  0  0  0  0  0  0  0
   18.5615   18.8375   20.6718 H   0  0  0  0  0  0  0  0  0  0  0  0
   18.8573   20.5143   21.0769 H   0  0  0  0  0  0  0  0  0  0  0  0
   20.6487   19.2968   21.0181 C   0  0  0  0  0  0  0  0  0  0  0  0
   21.2542   20.0093   21.5922 H   0  0  0  0  0  0  0  0  0  0  0  0
   20.8127   19.5552   19.9626 H   0  0  0  0  0  0  0  0  0  0  0  0
   21.1503   17.8538   21.2528 C   0  0  0  0  0  0  0  0  0  0  0  0
   21.0907   17.5694   22.3090 H   0  0  0  0  0  0  0  0  0  0  0  0
   22.1986   17.7561   20.9422 H   0  0  0  0  0  0  0  0  0  0  0  0
   20.5604   17.1335   20.6713 H   0  0  0  0  0  0  0  0  0  0  0  0
   19.9742   18.5165   26.4857 C   0  0  0  0  0  0  0  0  0  0  0  0
   20.0286   17.5668   27.0225 H   0  0  0  0  0  0  0  0  0  0  0  0
   20.4415   19.3037   27.0813 H   0  0  0  0  0  0  0  0  0  0  0  0
   18.9299   18.7686   26.2914 H   0  0  0  0  0  0  0  0  0  0  0  0
  1  2  1  0  0  0  0
  1  3  1  0  0  0  0
  1  4  1  0  0  0  0
  4  5  1  0  0  0  0
  4  6  1  0  0  0  0
  4  7  1  0  0  0  0
  7  8  1  0  0  0  0
  7  9  1  0  0  0  0
  7 10  1  0  0  0  0
 10 11  1  0  0  0  0
 10 12  1  0  0  0  0
 10 13  1  0  0  0  0
 13 14  1  0  0  0  0
 13 15  1  0  0  0  0
 13 16  1  0  0  0  0
 16 17  1  0  0  0  0
 16 18  1  0  0  0  0
 16 19  1  0  0  0  0
 19 20  1  0  0  0  0
 19 21  1  0  0  0  0
 19 22  1  0  0  0  0
  1 23  1  0  0  0  0
 23 24  1  0  0  0  0
 23 25  1  0  0  0  0
 23 26  1  0  0  0  0
M  END
> <VM2 Rank>
179

> <Conf_Id>
255

> <Probability>
0.00

> <Sum Probability>
99.99

> <Delta G>
5.206

> <G>
80.672

> <E>
47.302

> <-TS>
33.370

> <U+W>
25.840

> <U>
75.928

> <W>
-50.087

> <W(PB)>
-52.241

> <W(SA)>
2.154

> <Valence>
5.188

> <Coulomb>
70.757

> <VdW>
-0.018

> <VdW6>
-9.641

> <VdW12>
9.623

> <Bond>
0.309

> <Angle>
1.931

> <Pdih>
2.948

> <Idih>
0.000

> <Tether>
0.000

$$$$
VeraChem MOL file


 26 25  0  0  0  0  0  0  0  0999 V2000     
   19.7418   18.3338   24.8561 N   0  3  0  0  0  0  0  0  0  0  0  0
   20.4100   17.5480   24.8313 H   0  0  0  0  0  0  0  0  0  0  0  0
   19.2632   18.3210   23.9436 H   0  0  0  0  0  0  0  0  0  0  0  0
   20.4859   19.6434   25.0316 C   0  0  0  0  0  0  0  0  0  0  0  0
   21.0407   19.5706   25.9704 H   0  0  0  0  0  0  0  0  0  0  0  0
   19.7519   20.4468   25.1325 H   0  0  0  0  0  0  0  0  0  0  0  0
   21.4670   19.9763   23.8877 C   0  0  0  0  0  0  0  0  0  0  0  0
   22.2069   20.6862   24.2806 H   0  0  0  0  0  0  0  0  0  0  0  0
   22.0381   19.0829   23.6049 H   0  0  0  0  0  0  0  0  0  0  0  0
   20.8028   20.6281   22.6449 C   0  0  0  0  0  0  0  0  0  0  0  0
   21.5901   20.8918   21.9253 H   0  0  0  0  0  0  0  0  0  0  0  0
   20.3470   21.5807   22.9488 H   0  0  0  0  0  0  0  0  0  0  0  0
   19.7294   19.7782   21.9180 C   0  0  0  0  0  0  0  0  0  0  0  0
   18.8719   19.6052   22.5800 H   0  0  0  0  0  0  0  0  0  0  0  0
   19.3359   20.3689   21.0790 H   0  0  0  0  0  0  0  0  0  0  0  0
   20.2683   18.4368   21.3656 C   0  0  0  0  0  0  0  0  0  0  0  0
   20.6703   17.8159   22.1760 H   0  0  0  0  0  0  0  0  0  0  0  0
   21.1031   18.6319   20.6779 H   0  0  0  0  0  0  0  0  0  0  0  0
   19.1703   17.6452   20.6239 C   0  0  0  0  0  0  0  0  0  0  0  0
   18.7760   18.2182   19.7746 H   0  0  0  0  0  0  0  0  0  0  0  0
   18.3331   17.4060   21.2923 H   0  0  0  0  0  0  0  0  0  0  0  0
   19.5703   16.7000   20.2343 H   0  0  0  0  0  0  0  0  0  0  0  0
   18.7425   18.1484   25.9892 C   0  0  0  0  0  0  0  0  0  0  0  0
   18.0284   18.9747   25.9772 H   0  0  0  0  0  0  0  0  0  0  0  0
   18.2146   17.2022   25.8505 H   0  0  0  0  0  0  0  0  0  0  0  0
   19.2778   18.1359   26.9411 H   0  0  0  0  0  0  0  0  0  0  0  0
  1  2  1  0  0  0  0
  1  3  1  0  0  0  0
  1  4  1  0  0  0  0
  4  5  1  0  0  0  0
  4  6  1  0  0  0  0
  4  7  1  0  0  0  0
  7  8  1  0  0  0  0
  7  9  1  0  0  0  0
  7 10  1  0  0  0  0
 10 11  1  0  0  0  0
 10 12  1  0  0  0  0
 10 13  1  0  0  0  0
 13 14  1  0  0  0  0
 13 15  1  0  0  0  0
 13 16  1  0  0  0  0
 16 17  1  0  0  0  0
 16 18  1  0  0  0  0
 16 19  1  0  0  0  0
 19 20  1  0  0  0  0
 19 21  1  0  0  0  0
 19 22  1  0  0  0  0
  1 23  1  0  0  0  0
 23 24  1  0  0  0  0
 23 25  1  0  0  0  0
 23 26  1  0  0  0  0
M  END
> <VM2 Rank>
180

> <Conf_Id>
1489

> <Probability>
0.00

> <Sum Probability>
99.99

> <Delta G>
5.235

> <G>
80.701

> <E>
47.753

> <-TS>
32.948

> <U+W>
26.291

> <U>
74.740

> <W>
-48.449

> <W(PB)>
-50.669

> <W(SA)>
2.221

> <Valence>
3.847

> <Coulomb>
71.181

> <VdW>
-0.288

> <VdW6>
-8.401

> <VdW12>
8.113

> <Bond>
0.222

> <Angle>
1.471

> <Pdih>
2.154

> <Idih>
0.000

> <Tether>
0.000

$$$$
VeraChem MOL file


 26 25  0  0  0  0  0  0  0  0999 V2000     
   20.2293   19.4185   25.7353 N   0  3  0  0  0  0  0  0  0  0  0  0
   20.8837   19.5322   26.5254 H   0  0  0  0  0  0  0  0  0  0  0  0
   19.3428   19.1184   26.1684 H   0  0  0  0  0  0  0  0  0  0  0  0
   20.7553   18.3360   24.8050 C   0  0  0  0  0  0  0  0  0  0  0  0
   21.3451   17.6604   25.4299 H   0  0  0  0  0  0  0  0  0  0  0  0
   21.4395   18.7891   24.0875 H   0  0  0  0  0  0  0  0  0  0  0  0
   19.6781   17.4848   24.0941 C   0  0  0  0  0  0  0  0  0  0  0  0
   20.1701   16.6189   23.6319 H   0  0  0  0  0  0  0  0  0  0  0  0
   19.0132   17.0684   24.8622 H   0  0  0  0  0  0  0  0  0  0  0  0
   18.8111   18.1983   23.0221 C   0  0  0  0  0  0  0  0  0  0  0  0
   18.3434   19.1029   23.4287 H   0  0  0  0  0  0  0  0  0  0  0  0
   17.9736   17.5253   22.7916 H   0  0  0  0  0  0  0  0  0  0  0  0
   19.5324   18.5021   21.6819 C   0  0  0  0  0  0  0  0  0  0  0  0
   20.1602   17.6480   21.3930 H   0  0  0  0  0  0  0  0  0  0  0  0
   18.7663   18.5904   20.8990 H   0  0  0  0  0  0  0  0  0  0  0  0
   20.3705   19.8021   21.6771 C   0  0  0  0  0  0  0  0  0  0  0  0
   21.1941   19.7333   22.3956 H   0  0  0  0  0  0  0  0  0  0  0  0
   19.7432   20.6492   21.9864 H   0  0  0  0  0  0  0  0  0  0  0  0
   20.9586   20.0926   20.2797 C   0  0  0  0  0  0  0  0  0  0  0  0
   21.5507   21.0169   20.2927 H   0  0  0  0  0  0  0  0  0  0  0  0
   20.1631   20.2136   19.5328 H   0  0  0  0  0  0  0  0  0  0  0  0
   21.6153   19.2768   19.9504 H   0  0  0  0  0  0  0  0  0  0  0  0
   20.0727   20.7557   25.0218 C   0  0  0  0  0  0  0  0  0  0  0  0
   21.0366   21.0527   24.6031 H   0  0  0  0  0  0  0  0  0  0  0  0
   19.3361   20.6623   24.2238 H   0  0  0  0  0  0  0  0  0  0  0  0
   19.7383   21.5060   25.7417 H   0  0  0  0  0  0  0  0  0  0  0  0
  1  2  1  0  0  0  0
  1  3  1  0  0  0  0
  1  4  1  0  0  0  0
  4  5  1  0  0  0  0
  4  6  1  0  0  0  0
  4  7  1  0  0  0  0
  7  8  1  0  0  0  0
  7  9  1  0  0  0  0
  7 10  1  0  0  0  0
 10 11  1  0  0  0  0
 10 12  1  0  0  0  0
 10 13  1  0  0  0  0
 13 14  1  0  0  0  0
 13 15  1  0  0  0  0
 13 16  1  0  0  0  0
 16 17  1  0  0  0  0
 16 18  1  0  0  0  0
 16 19  1  0  0  0  0
 19 20  1  0  0  0  0
 19 21  1  0  0  0  0
 19 22  1  0  0  0  0
  1 23  1  0  0  0  0
 23 24  1  0  0  0  0
 23 25  1  0  0  0  0
 23 26  1  0  0  0  0
M  END
> <VM2 Rank>
181

> <Conf_Id>
523

> <Probability>
0.00

> <Sum Probability>
99.99

> <Delta G>
5.237

> <G>
80.703

> <E>
47.925

> <-TS>
32.778

> <U+W>
26.463

> <U>
76.751

> <W>
-50.288

> <W(PB)>
-52.449

> <W(SA)>
2.161

> <Valence>
6.850

> <Coulomb>
70.206

> <VdW>
-0.305

> <VdW6>
-9.094

> <VdW12>
8.789

> <Bond>
0.276

> <Angle>
2.525

> <Pdih>
4.049

> <Idih>
0.000

> <Tether>
0.000

$$$$
VeraChem MOL file


 26 25  0  0  0  0  0  0  0  0999 V2000     
   20.3965   18.4023   24.8792 N   0  3  0  0  0  0  0  0  0  0  0  0
   20.9298   18.4955   24.0024 H   0  0  0  0  0  0  0  0  0  0  0  0
   19.9088   17.4955   24.8136 H   0  0  0  0  0  0  0  0  0  0  0  0
   19.3871   19.5283   24.9927 C   0  0  0  0  0  0  0  0  0  0  0  0
   19.9301   20.4655   25.1386 H   0  0  0  0  0  0  0  0  0  0  0  0
   18.7953   19.3355   25.8911 H   0  0  0  0  0  0  0  0  0  0  0  0
   18.4406   19.6592   23.7807 C   0  0  0  0  0  0  0  0  0  0  0  0
   18.0880   18.6691   23.4654 H   0  0  0  0  0  0  0  0  0  0  0  0
   17.5442   20.1977   24.1159 H   0  0  0  0  0  0  0  0  0  0  0  0
   19.0405   20.4434   22.5826 C   0  0  0  0  0  0  0  0  0  0  0  0
   19.2668   21.4675   22.9105 H   0  0  0  0  0  0  0  0  0  0  0  0
   18.2679   20.5436   21.8078 H   0  0  0  0  0  0  0  0  0  0  0  0
   20.3147   19.8395   21.9387 C   0  0  0  0  0  0  0  0  0  0  0  0
   20.6350   20.5051   21.1249 H   0  0  0  0  0  0  0  0  0  0  0  0
   21.1410   19.8430   22.6602 H   0  0  0  0  0  0  0  0  0  0  0  0
   20.1052   18.4197   21.3599 C   0  0  0  0  0  0  0  0  0  0  0  0
   19.2982   18.4428   20.6141 H   0  0  0  0  0  0  0  0  0  0  0  0
   19.7847   17.7231   22.1447 H   0  0  0  0  0  0  0  0  0  0  0  0
   21.3924   17.8780   20.7027 C   0  0  0  0  0  0  0  0  0  0  0  0
   21.2250   16.8734   20.2929 H   0  0  0  0  0  0  0  0  0  0  0  0
   22.2122   17.8124   21.4297 H   0  0  0  0  0  0  0  0  0  0  0  0
   21.7180   18.5265   19.8788 H   0  0  0  0  0  0  0  0  0  0  0  0
   21.3310   18.4195   26.0805 C   0  0  0  0  0  0  0  0  0  0  0  0
   22.0516   17.6041   25.9859 H   0  0  0  0  0  0  0  0  0  0  0  0
   21.8577   19.3758   26.1123 H   0  0  0  0  0  0  0  0  0  0  0  0
   20.7448   18.2896   26.9929 H   0  0  0  0  0  0  0  0  0  0  0  0
  1  2  1  0  0  0  0
  1  3  1  0  0  0  0
  1  4  1  0  0  0  0
  4  5  1  0  0  0  0
  4  6  1  0  0  0  0
  4  7  1  0  0  0  0
  7  8  1  0  0  0  0
  7  9  1  0  0  0  0
  7 10  1  0  0  0  0
 10 11  1  0  0  0  0
 10 12  1  0  0  0  0
 10 13  1  0  0  0  0
 13 14  1  0  0  0  0
 13 15  1  0  0  0  0
 13 16  1  0  0  0  0
 16 17  1  0  0  0  0
 16 18  1  0  0  0  0
 16 19  1  0  0  0  0
 19 20  1  0  0  0  0
 19 21  1  0  0  0  0
 19 22  1  0  0  0  0
  1 23  1  0  0  0  0
 23 24  1  0  0  0  0
 23 25  1  0  0  0  0
 23 26  1  0  0  0  0
M  END
> <VM2 Rank>
182

> <Conf_Id>
735

> <Probability>
0.00

> <Sum Probability>
99.99

> <Delta G>
5.289

> <G>
80.755

> <E>
47.807

> <-TS>
32.948

> <U+W>
26.345

> <U>
74.740

> <W>
-48.395

> <W(PB)>
-50.620

> <W(SA)>
2.225

> <Valence>
3.847

> <Coulomb>
71.181

> <VdW>
-0.288

> <VdW6>
-8.401

> <VdW12>
8.113

> <Bond>
0.222

> <Angle>
1.471

> <Pdih>
2.154

> <Idih>
0.000

> <Tether>
0.000

$$$$
VeraChem MOL file


 26 25  0  0  0  0  0  0  0  0999 V2000     
   19.3653   18.6178   25.8696 N   0  3  0  0  0  0  0  0  0  0  0  0
   19.2449   18.0144   26.6985 H   0  0  0  0  0  0  0  0  0  0  0  0
   18.4916   18.5091   25.3327 H   0  0  0  0  0  0  0  0  0  0  0  0
   20.5510   18.1215   25.0570 C   0  0  0  0  0  0  0  0  0  0  0  0
   20.6270   17.0463   25.2385 H   0  0  0  0  0  0  0  0  0  0  0  0
   21.4566   18.5896   25.4508 H   0  0  0  0  0  0  0  0  0  0  0  0
   20.4512   18.3411   23.5309 C   0  0  0  0  0  0  0  0  0  0  0  0
   21.3054   17.8375   23.0596 H   0  0  0  0  0  0  0  0  0  0  0  0
   19.5462   17.8445   23.1596 H   0  0  0  0  0  0  0  0  0  0  0  0
   20.4458   19.8298   23.1100 C   0  0  0  0  0  0  0  0  0  0  0  0
   21.2441   20.3561   23.6515 H   0  0  0  0  0  0  0  0  0  0  0  0
   19.5009   20.2962   23.4180 H   0  0  0  0  0  0  0  0  0  0  0  0
   20.6512   20.0658   21.5911 C   0  0  0  0  0  0  0  0  0  0  0  0
   20.6911   21.1520   21.4295 H   0  0  0  0  0  0  0  0  0  0  0  0
   21.6328   19.6849   21.2772 H   0  0  0  0  0  0  0  0  0  0  0  0
   19.5348   19.4864   20.6838 C   0  0  0  0  0  0  0  0  0  0  0  0
   19.4097   20.1519   19.8180 H   0  0  0  0  0  0  0  0  0  0  0  0
   18.5710   19.4942   21.2116 H   0  0  0  0  0  0  0  0  0  0  0  0
   19.8444   18.0679   20.1505 C   0  0  0  0  0  0  0  0  0  0  0  0
   19.0417   17.7253   19.4847 H   0  0  0  0  0  0  0  0  0  0  0  0
   19.9391   17.3337   20.9577 H   0  0  0  0  0  0  0  0  0  0  0  0
   20.7790   18.0605   19.5749 H   0  0  0  0  0  0  0  0  0  0  0  0
   19.5644   20.0597   26.3240 C   0  0  0  0  0  0  0  0  0  0  0  0
   19.6495   20.7117   25.4540 H   0  0  0  0  0  0  0  0  0  0  0  0
   18.7067   20.3645   26.9278 H   0  0  0  0  0  0  0  0  0  0  0  0
   20.4757   20.1230   26.9226 H   0  0  0  0  0  0  0  0  0  0  0  0
  1  2  1  0  0  0  0
  1  3  1  0  0  0  0
  1  4  1  0  0  0  0
  4  5  1  0  0  0  0
  4  6  1  0  0  0  0
  4  7  1  0  0  0  0
  7  8  1  0  0  0  0
  7  9  1  0  0  0  0
  7 10  1  0  0  0  0
 10 11  1  0  0  0  0
 10 12  1  0  0  0  0
 10 13  1  0  0  0  0
 13 14  1  0  0  0  0
 13 15  1  0  0  0  0
 13 16  1  0  0  0  0
 16 17  1  0  0  0  0
 16 18  1  0  0  0  0
 16 19  1  0  0  0  0
 19 20  1  0  0  0  0
 19 21  1  0  0  0  0
 19 22  1  0  0  0  0
  1 23  1  0  0  0  0
 23 24  1  0  0  0  0
 23 25  1  0  0  0  0
 23 26  1  0  0  0  0
M  END
> <VM2 Rank>
183

> <Conf_Id>
448

> <Probability>
0.00

> <Sum Probability>
99.99

> <Delta G>
5.336

> <G>
80.802

> <E>
47.962

> <-TS>
32.840

> <U+W>
26.500

> <U>
76.259

> <W>
-49.758

> <W(PB)>
-51.981

> <W(SA)>
2.222

> <Valence>
6.620

> <Coulomb>
69.255

> <VdW>
0.384

> <VdW6>
-8.486

> <VdW12>
8.870

> <Bond>
0.273

> <Angle>
1.659

> <Pdih>
4.688

> <Idih>
0.000

> <Tether>
0.000

$$$$
VeraChem MOL file


 26 25  0  0  0  0  0  0  0  0999 V2000     
   19.7212   19.3203   25.7710 N   0  3  0  0  0  0  0  0  0  0  0  0
   20.6083   18.9730   26.1654 H   0  0  0  0  0  0  0  0  0  0  0  0
   19.0594   19.3191   26.5632 H   0  0  0  0  0  0  0  0  0  0  0  0
   19.2169   18.3748   24.6929 C   0  0  0  0  0  0  0  0  0  0  0  0
   18.6452   18.9557   23.9685 H   0  0  0  0  0  0  0  0  0  0  0  0
   18.5224   17.6879   25.1834 H   0  0  0  0  0  0  0  0  0  0  0  0
   20.3079   17.5265   23.9974 C   0  0  0  0  0  0  0  0  0  0  0  0
   20.8469   16.9695   24.7750 H   0  0  0  0  0  0  0  0  0  0  0  0
   19.8237   16.7658   23.3710 H   0  0  0  0  0  0  0  0  0  0  0  0
   21.3401   18.3105   23.1436 C   0  0  0  0  0  0  0  0  0  0  0  0
   22.2407   17.6870   23.0569 H   0  0  0  0  0  0  0  0  0  0  0  0
   21.6699   19.2163   23.6655 H   0  0  0  0  0  0  0  0  0  0  0  0
   20.8826   18.6537   21.7014 C   0  0  0  0  0  0  0  0  0  0  0  0
   21.7305   19.1165   21.1776 H   0  0  0  0  0  0  0  0  0  0  0  0
   20.6612   17.7250   21.1576 H   0  0  0  0  0  0  0  0  0  0  0  0
   19.6649   19.6019   21.6115 C   0  0  0  0  0  0  0  0  0  0  0  0
   19.8275   20.4829   22.2468 H   0  0  0  0  0  0  0  0  0  0  0  0
   18.7659   19.0930   21.9809 H   0  0  0  0  0  0  0  0  0  0  0  0
   19.4074   20.0609   20.1603 C   0  0  0  0  0  0  0  0  0  0  0  0
   18.5333   20.7233   20.1126 H   0  0  0  0  0  0  0  0  0  0  0  0
   19.2158   19.2027   19.5030 H   0  0  0  0  0  0  0  0  0  0  0  0
   20.2687   20.6119   19.7608 H   0  0  0  0  0  0  0  0  0  0  0  0
   19.8671   20.7414   25.2389 C   0  0  0  0  0  0  0  0  0  0  0  0
   20.5930   20.7571   24.4252 H   0  0  0  0  0  0  0  0  0  0  0  0
   18.8974   21.0875   24.8744 H   0  0  0  0  0  0  0  0  0  0  0  0
   20.2084   21.3913   26.0477 H   0  0  0  0  0  0  0  0  0  0  0  0
  1  2  1  0  0  0  0
  1  3  1  0  0  0  0
  1  4  1  0  0  0  0
  4  5  1  0  0  0  0
  4  6  1  0  0  0  0
  4  7  1  0  0  0  0
  7  8  1  0  0  0  0
  7  9  1  0  0  0  0
  7 10  1  0  0  0  0
 10 11  1  0  0  0  0
 10 12  1  0  0  0  0
 10 13  1  0  0  0  0
 13 14  1  0  0  0  0
 13 15  1  0  0  0  0
 13 16  1  0  0  0  0
 16 17  1  0  0  0  0
 16 18  1  0  0  0  0
 16 19  1  0  0  0  0
 19 20  1  0  0  0  0
 19 21  1  0  0  0  0
 19 22  1  0  0  0  0
  1 23  1  0  0  0  0
 23 24  1  0  0  0  0
 23 25  1  0  0  0  0
 23 26  1  0  0  0  0
M  END
> <VM2 Rank>
184

> <Conf_Id>
259

> <Probability>
0.00

> <Sum Probability>
99.99

> <Delta G>
5.392

> <G>
80.858

> <E>
47.906

> <-TS>
32.952

> <U+W>
26.444

> <U>
76.622

> <W>
-50.178

> <W(PB)>
-52.359

> <W(SA)>
2.181

> <Valence>
6.683

> <Coulomb>
70.097

> <VdW>
-0.157

> <VdW6>
-8.952

> <VdW12>
8.795

> <Bond>
0.267

> <Angle>
2.043

> <Pdih>
4.372

> <Idih>
0.000

> <Tether>
0.000

$$$$
VeraChem MOL file


 26 25  0  0  0  0  0  0  0  0999 V2000     
   19.9776   18.7581   26.1086 N   0  3  0  0  0  0  0  0  0  0  0  0
   20.9603   18.4470   26.0801 H   0  0  0  0  0  0  0  0  0  0  0  0
   19.5866   18.3268   26.9610 H   0  0  0  0  0  0  0  0  0  0  0  0
   19.2237   18.2409   24.8937 C   0  0  0  0  0  0  0  0  0  0  0  0
   18.3589   18.8878   24.7263 H   0  0  0  0  0  0  0  0  0  0  0  0
   18.8498   17.2478   25.1559 H   0  0  0  0  0  0  0  0  0  0  0  0
   20.0561   18.1102   23.5986 C   0  0  0  0  0  0  0  0  0  0  0  0
   20.8987   17.4291   23.7769 H   0  0  0  0  0  0  0  0  0  0  0  0
   19.4282   17.6220   22.8449 H   0  0  0  0  0  0  0  0  0  0  0  0
   20.5863   19.4597   23.0523 C   0  0  0  0  0  0  0  0  0  0  0  0
   21.3357   19.8457   23.7557 H   0  0  0  0  0  0  0  0  0  0  0  0
   19.7793   20.2046   23.0201 H   0  0  0  0  0  0  0  0  0  0  0  0
   21.2551   19.3390   21.6580 C   0  0  0  0  0  0  0  0  0  0  0  0
   22.1022   20.0379   21.6226 H   0  0  0  0  0  0  0  0  0  0  0  0
   21.6916   18.3389   21.5291 H   0  0  0  0  0  0  0  0  0  0  0  0
   20.3250   19.6737   20.4636 C   0  0  0  0  0  0  0  0  0  0  0  0
   20.9159   19.6290   19.5380 H   0  0  0  0  0  0  0  0  0  0  0  0
   19.9744   20.7117   20.5500 H   0  0  0  0  0  0  0  0  0  0  0  0
   19.1085   18.7329   20.3203 C   0  0  0  0  0  0  0  0  0  0  0  0
   18.4075   18.8569   21.1550 H   0  0  0  0  0  0  0  0  0  0  0  0
   19.4228   17.6820   20.2799 H   0  0  0  0  0  0  0  0  0  0  0  0
   18.5594   18.9543   19.3960 H   0  0  0  0  0  0  0  0  0  0  0  0
   19.8758   20.2754   26.2219 C   0  0  0  0  0  0  0  0  0  0  0  0
   18.8235   20.5582   26.2961 H   0  0  0  0  0  0  0  0  0  0  0  0
   20.4078   20.6023   27.1182 H   0  0  0  0  0  0  0  0  0  0  0  0
   20.3206   20.7413   25.3418 H   0  0  0  0  0  0  0  0  0  0  0  0
  1  2  1  0  0  0  0
  1  3  1  0  0  0  0
  1  4  1  0  0  0  0
  4  5  1  0  0  0  0
  4  6  1  0  0  0  0
  4  7  1  0  0  0  0
  7  8  1  0  0  0  0
  7  9  1  0  0  0  0
  7 10  1  0  0  0  0
 10 11  1  0  0  0  0
 10 12  1  0  0  0  0
 10 13  1  0  0  0  0
 13 14  1  0  0  0  0
 13 15  1  0  0  0  0
 13 16  1  0  0  0  0
 16 17  1  0  0  0  0
 16 18  1  0  0  0  0
 16 19  1  0  0  0  0
 19 20  1  0  0  0  0
 19 21  1  0  0  0  0
 19 22  1  0  0  0  0
  1 23  1  0  0  0  0
 23 24  1  0  0  0  0
 23 25  1  0  0  0  0
 23 26  1  0  0  0  0
M  END
> <VM2 Rank>
185

> <Conf_Id>
510

> <Probability>
0.00

> <Sum Probability>
100.00

> <Delta G>
5.502

> <G>
80.968

> <E>
48.049

> <-TS>
32.919

> <U+W>
26.588

> <U>
76.255

> <W>
-49.667

> <W(PB)>
-51.864

> <W(SA)>
2.196

> <Valence>
6.727

> <Coulomb>
69.126

> <VdW>
0.402

> <VdW6>
-8.493

> <VdW12>
8.895

> <Bond>
0.275

> <Angle>
1.572

> <Pdih>
4.880

> <Idih>
0.000

> <Tether>
0.000

$$$$
VeraChem MOL file


 26 25  0  0  0  0  0  0  0  0999 V2000     
   20.1773   18.4732   26.1292 N   0  3  0  0  0  0  0  0  0  0  0  0
   20.6833   18.4907   27.0289 H   0  0  0  0  0  0  0  0  0  0  0  0
   19.9182   17.4840   25.9933 H   0  0  0  0  0  0  0  0  0  0  0  0
   21.1153   18.9256   25.0182 C   0  0  0  0  0  0  0  0  0  0  0  0
   22.0264   18.3319   25.1286 H   0  0  0  0  0  0  0  0  0  0  0  0
   21.3782   19.9724   25.1894 H   0  0  0  0  0  0  0  0  0  0  0  0
   20.5884   18.7373   23.5781 C   0  0  0  0  0  0  0  0  0  0  0  0
   21.4484   18.4939   22.9422 H   0  0  0  0  0  0  0  0  0  0  0  0
   19.9096   17.8754   23.5366 H   0  0  0  0  0  0  0  0  0  0  0  0
   19.9007   20.0040   23.0123 C   0  0  0  0  0  0  0  0  0  0  0  0
   20.6390   20.8145   22.9405 H   0  0  0  0  0  0  0  0  0  0  0  0
   19.1363   20.3574   23.7144 H   0  0  0  0  0  0  0  0  0  0  0  0
   19.2243   19.8016   21.6314 C   0  0  0  0  0  0  0  0  0  0  0  0
   18.4138   19.0642   21.7122 H   0  0  0  0  0  0  0  0  0  0  0  0
   18.7356   20.7482   21.3621 H   0  0  0  0  0  0  0  0  0  0  0  0
   20.1893   19.4144   20.4808 C   0  0  0  0  0  0  0  0  0  0  0  0
   21.1886   19.8337   20.6625 H   0  0  0  0  0  0  0  0  0  0  0  0
   19.8309   19.8813   19.5527 H   0  0  0  0  0  0  0  0  0  0  0  0
   20.2809   17.8891   20.2403 C   0  0  0  0  0  0  0  0  0  0  0  0
   20.6625   17.3541   21.1167 H   0  0  0  0  0  0  0  0  0  0  0  0
   20.9543   17.6730   19.4008 H   0  0  0  0  0  0  0  0  0  0  0  0
   19.2964   17.4717   19.9922 H   0  0  0  0  0  0  0  0  0  0  0  0
   18.9319   19.3449   26.2265 C   0  0  0  0  0  0  0  0  0  0  0  0
   19.2316   20.3873   26.3547 H   0  0  0  0  0  0  0  0  0  0  0  0
   18.3440   19.2343   25.3134 H   0  0  0  0  0  0  0  0  0  0  0  0
   18.3376   19.0233   27.0846 H   0  0  0  0  0  0  0  0  0  0  0  0
  1  2  1  0  0  0  0
  1  3  1  0  0  0  0
  1  4  1  0  0  0  0
  4  5  1  0  0  0  0
  4  6  1  0  0  0  0
  4  7  1  0  0  0  0
  7  8  1  0  0  0  0
  7  9  1  0  0  0  0
  7 10  1  0  0  0  0
 10 11  1  0  0  0  0
 10 12  1  0  0  0  0
 10 13  1  0  0  0  0
 13 14  1  0  0  0  0
 13 15  1  0  0  0  0
 13 16  1  0  0  0  0
 16 17  1  0  0  0  0
 16 18  1  0  0  0  0
 16 19  1  0  0  0  0
 19 20  1  0  0  0  0
 19 21  1  0  0  0  0
 19 22  1  0  0  0  0
  1 23  1  0  0  0  0
 23 24  1  0  0  0  0
 23 25  1  0  0  0  0
 23 26  1  0  0  0  0
M  END
> <VM2 Rank>
186

> <Conf_Id>
799

> <Probability>
0.00

> <Sum Probability>
100.00

> <Delta G>
5.600

> <G>
81.066

> <E>
48.304

> <-TS>
32.762

> <U+W>
26.842

> <U>
76.536

> <W>
-49.693

> <W(PB)>
-51.898

> <W(SA)>
2.205

> <Valence>
6.954

> <Coulomb>
69.035

> <VdW>
0.548

> <VdW6>
-8.376

> <VdW12>
8.924

> <Bond>
0.281

> <Angle>
1.722

> <Pdih>
4.950

> <Idih>
0.000

> <Tether>
0.000

$$$$
VeraChem MOL file


 26 25  0  0  0  0  0  0  0  0999 V2000     
   19.3765   18.9834   25.6596 N   0  3  0  0  0  0  0  0  0  0  0  0
   19.1500   18.8837   26.6618 H   0  0  0  0  0  0  0  0  0  0  0  0
   18.7331   18.3403   25.1752 H   0  0  0  0  0  0  0  0  0  0  0  0
   20.8179   18.5628   25.4267 C   0  0  0  0  0  0  0  0  0  0  0  0
   21.0649   17.8485   26.2163 H   0  0  0  0  0  0  0  0  0  0  0  0
   21.4539   19.4404   25.5663 H   0  0  0  0  0  0  0  0  0  0  0  0
   21.1266   17.8908   24.0674 C   0  0  0  0  0  0  0  0  0  0  0  0
   22.1772   17.5729   24.0990 H   0  0  0  0  0  0  0  0  0  0  0  0
   20.5412   16.9679   23.9617 H   0  0  0  0  0  0  0  0  0  0  0  0
   20.9364   18.7980   22.8253 C   0  0  0  0  0  0  0  0  0  0  0  0
   21.6789   18.5043   22.0714 H   0  0  0  0  0  0  0  0  0  0  0  0
   21.1637   19.8409   23.0845 H   0  0  0  0  0  0  0  0  0  0  0  0
   19.5251   18.6836   22.1932 C   0  0  0  0  0  0  0  0  0  0  0  0
   19.3825   17.6681   21.7986 H   0  0  0  0  0  0  0  0  0  0  0  0
   18.7554   18.8182   22.9617 H   0  0  0  0  0  0  0  0  0  0  0  0
   19.2725   19.7128   21.0651 C   0  0  0  0  0  0  0  0  0  0  0  0
   19.3818   20.7321   21.4612 H   0  0  0  0  0  0  0  0  0  0  0  0
   18.2289   19.6231   20.7326 H   0  0  0  0  0  0  0  0  0  0  0  0
   20.2023   19.5280   19.8442 C   0  0  0  0  0  0  0  0  0  0  0  0
   20.1327   18.5077   19.4455 H   0  0  0  0  0  0  0  0  0  0  0  0
   21.2501   19.7262   20.1019 H   0  0  0  0  0  0  0  0  0  0  0  0
   19.9237   20.2219   19.0406 H   0  0  0  0  0  0  0  0  0  0  0  0
   19.1506   20.4306   25.2355 C   0  0  0  0  0  0  0  0  0  0  0  0
   19.3662   20.5375   24.1713 H   0  0  0  0  0  0  0  0  0  0  0  0
   18.1104   20.7014   25.4295 H   0  0  0  0  0  0  0  0  0  0  0  0
   19.8131   21.0795   25.8124 H   0  0  0  0  0  0  0  0  0  0  0  0
  1  2  1  0  0  0  0
  1  3  1  0  0  0  0
  1  4  1  0  0  0  0
  4  5  1  0  0  0  0
  4  6  1  0  0  0  0
  4  7  1  0  0  0  0
  7  8  1  0  0  0  0
  7  9  1  0  0  0  0
  7 10  1  0  0  0  0
 10 11  1  0  0  0  0
 10 12  1  0  0  0  0
 10 13  1  0  0  0  0
 13 14  1  0  0  0  0
 13 15  1  0  0  0  0
 13 16  1  0  0  0  0
 16 17  1  0  0  0  0
 16 18  1  0  0  0  0
 16 19  1  0  0  0  0
 19 20  1  0  0  0  0
 19 21  1  0  0  0  0
 19 22  1  0  0  0  0
  1 23  1  0  0  0  0
 23 24  1  0  0  0  0
 23 25  1  0  0  0  0
 23 26  1  0  0  0  0
M  END
> <VM2 Rank>
187

> <Conf_Id>
1573

> <Probability>
0.00

> <Sum Probability>
100.00

> <Delta G>
5.687

> <G>
81.153

> <E>
48.074

> <-TS>
33.078

> <U+W>
26.613

> <U>
76.615

> <W>
-50.003

> <W(PB)>
-52.184

> <W(SA)>
2.182

> <Valence>
6.481

> <Coulomb>
70.025

> <VdW>
0.109

> <VdW6>
-9.001

> <VdW12>
9.110

> <Bond>
0.267

> <Angle>
1.571

> <Pdih>
4.643

> <Idih>
0.000

> <Tether>
0.000

$$$$
VeraChem MOL file


 26 25  0  0  0  0  0  0  0  0999 V2000     
   19.7669   18.2100   25.3469 N   0  3  0  0  0  0  0  0  0  0  0  0
   19.8471   17.5568   26.1421 H   0  0  0  0  0  0  0  0  0  0  0  0
   19.7493   17.6118   24.5077 H   0  0  0  0  0  0  0  0  0  0  0  0
   20.9816   19.1209   25.3172 C   0  0  0  0  0  0  0  0  0  0  0  0
   21.7792   18.5957   25.8489 H   0  0  0  0  0  0  0  0  0  0  0  0
   20.7441   20.0225   25.8873 H   0  0  0  0  0  0  0  0  0  0  0  0
   21.5148   19.5004   23.9157 C   0  0  0  0  0  0  0  0  0  0  0  0
   22.4266   20.0919   24.0720 H   0  0  0  0  0  0  0  0  0  0  0  0
   21.8401   18.5976   23.3859 H   0  0  0  0  0  0  0  0  0  0  0  0
   20.5437   20.3431   23.0455 C   0  0  0  0  0  0  0  0  0  0  0  0
   21.1350   21.0008   22.3935 H   0  0  0  0  0  0  0  0  0  0  0  0
   19.9684   21.0171   23.6948 H   0  0  0  0  0  0  0  0  0  0  0  0
   19.5742   19.5229   22.1536 C   0  0  0  0  0  0  0  0  0  0  0  0
   19.0191   18.7928   22.7530 H   0  0  0  0  0  0  0  0  0  0  0  0
   18.8230   20.2100   21.7402 H   0  0  0  0  0  0  0  0  0  0  0  0
   20.2785   18.7995   20.9807 C   0  0  0  0  0  0  0  0  0  0  0  0
   21.0039   18.0684   21.3602 H   0  0  0  0  0  0  0  0  0  0  0  0
   20.8456   19.5269   20.3832 H   0  0  0  0  0  0  0  0  0  0  0  0
   19.2653   18.0724   20.0708 C   0  0  0  0  0  0  0  0  0  0  0  0
   19.7805   17.5658   19.2444 H   0  0  0  0  0  0  0  0  0  0  0  0
   18.5463   18.7790   19.6360 H   0  0  0  0  0  0  0  0  0  0  0  0
   18.7032   17.3147   20.6320 H   0  0  0  0  0  0  0  0  0  0  0  0
   18.4831   19.0208   25.4866 C   0  0  0  0  0  0  0  0  0  0  0  0
   17.6298   18.3392   25.5044 H   0  0  0  0  0  0  0  0  0  0  0  0
   18.5194   19.5891   26.4185 H   0  0  0  0  0  0  0  0  0  0  0  0
   18.3907   19.7056   24.6420 H   0  0  0  0  0  0  0  0  0  0  0  0
  1  2  1  0  0  0  0
  1  3  1  0  0  0  0
  1  4  1  0  0  0  0
  4  5  1  0  0  0  0
  4  6  1  0  0  0  0
  4  7  1  0  0  0  0
  7  8  1  0  0  0  0
  7  9  1  0  0  0  0
  7 10  1  0  0  0  0
 10 11  1  0  0  0  0
 10 12  1  0  0  0  0
 10 13  1  0  0  0  0
 13 14  1  0  0  0  0
 13 15  1  0  0  0  0
 13 16  1  0  0  0  0
 16 17  1  0  0  0  0
 16 18  1  0  0  0  0
 16 19  1  0  0  0  0
 19 20  1  0  0  0  0
 19 21  1  0  0  0  0
 19 22  1  0  0  0  0
  1 23  1  0  0  0  0
 23 24  1  0  0  0  0
 23 25  1  0  0  0  0
 23 26  1  0  0  0  0
M  END
> <VM2 Rank>
188

> <Conf_Id>
262

> <Probability>
0.00

> <Sum Probability>
100.00

> <Delta G>
5.773

> <G>
81.239

> <E>
48.416

> <-TS>
32.824

> <U+W>
26.954

> <U>
77.040

> <W>
-50.085

> <W(PB)>
-52.291

> <W(SA)>
2.206

> <Valence>
6.724

> <Coulomb>
70.181

> <VdW>
0.134

> <VdW6>
-8.757

> <VdW12>
8.891

> <Bond>
0.279

> <Angle>
1.699

> <Pdih>
4.745

> <Idih>
0.000

> <Tether>
0.000

$$$$
VeraChem MOL file


 26 25  0  0  0  0  0  0  0  0999 V2000     
   20.7150   19.2424   24.9919 N   0  3  0  0  0  0  0  0  0  0  0  0
   21.2366   19.2753   24.1037 H   0  0  0  0  0  0  0  0  0  0  0  0
   21.1208   18.4596   25.5280 H   0  0  0  0  0  0  0  0  0  0  0  0
   19.2490   18.9776   24.7119 C   0  0  0  0  0  0  0  0  0  0  0  0
   18.8466   19.8304   24.1619 H   0  0  0  0  0  0  0  0  0  0  0  0
   18.7322   18.9252   25.6735 H   0  0  0  0  0  0  0  0  0  0  0  0
   18.9902   17.6800   23.9219 C   0  0  0  0  0  0  0  0  0  0  0  0
   19.2874   16.8265   24.5456 H   0  0  0  0  0  0  0  0  0  0  0  0
   17.9084   17.5759   23.7657 H   0  0  0  0  0  0  0  0  0  0  0  0
   19.7169   17.5765   22.5537 C   0  0  0  0  0  0  0  0  0  0  0  0
   19.4772   16.5879   22.1381 H   0  0  0  0  0  0  0  0  0  0  0  0
   20.8043   17.5668   22.6931 H   0  0  0  0  0  0  0  0  0  0  0  0
   19.2966   18.6386   21.5000 C   0  0  0  0  0  0  0  0  0  0  0  0
   19.4746   18.2192   20.5001 H   0  0  0  0  0  0  0  0  0  0  0  0
   18.2114   18.7995   21.5602 H   0  0  0  0  0  0  0  0  0  0  0  0
   20.0244   20.0070   21.5748 C   0  0  0  0  0  0  0  0  0  0  0  0
   19.8420   20.5012   22.5351 H   0  0  0  0  0  0  0  0  0  0  0  0
   19.5831   20.6700   20.8174 H   0  0  0  0  0  0  0  0  0  0  0  0
   21.5453   19.9162   21.3105 C   0  0  0  0  0  0  0  0  0  0  0  0
   21.9885   20.9200   21.2777 H   0  0  0  0  0  0  0  0  0  0  0  0
   21.7481   19.4316   20.3466 H   0  0  0  0  0  0  0  0  0  0  0  0
   22.0676   19.3525   22.0915 H   0  0  0  0  0  0  0  0  0  0  0  0
   20.8706   20.5517   25.7522 C   0  0  0  0  0  0  0  0  0  0  0  0
   20.4615   21.3669   25.1515 H   0  0  0  0  0  0  0  0  0  0  0  0
   20.3309   20.4829   26.6992 H   0  0  0  0  0  0  0  0  0  0  0  0
   21.9309   20.7308   25.9442 H   0  0  0  0  0  0  0  0  0  0  0  0
  1  2  1  0  0  0  0
  1  3  1  0  0  0  0
  1  4  1  0  0  0  0
  4  5  1  0  0  0  0
  4  6  1  0  0  0  0
  4  7  1  0  0  0  0
  7  8  1  0  0  0  0
  7  9  1  0  0  0  0
  7 10  1  0  0  0  0
 10 11  1  0  0  0  0
 10 12  1  0  0  0  0
 10 13  1  0  0  0  0
 13 14  1  0  0  0  0
 13 15  1  0  0  0  0
 13 16  1  0  0  0  0
 16 17  1  0  0  0  0
 16 18  1  0  0  0  0
 16 19  1  0  0  0  0
 19 20  1  0  0  0  0
 19 21  1  0  0  0  0
 19 22  1  0  0  0  0
  1 23  1  0  0  0  0
 23 24  1  0  0  0  0
 23 25  1  0  0  0  0
 23 26  1  0  0  0  0
M  END
> <VM2 Rank>
189

> <Conf_Id>
1337

> <Probability>
0.00

> <Sum Probability>
100.00

> <Delta G>
5.802

> <G>
81.267

> <E>
48.125

> <-TS>
33.142

> <U+W>
26.664

> <U>
75.617

> <W>
-48.954

> <W(PB)>
-51.136

> <W(SA)>
2.182

> <Valence>
5.117

> <Coulomb>
70.837

> <VdW>
-0.337

> <VdW6>
-9.231

> <VdW12>
8.895

> <Bond>
0.293

> <Angle>
2.154

> <Pdih>
2.670

> <Idih>
0.000

> <Tether>
0.000

$$$$
VeraChem MOL file


 26 25  0  0  0  0  0  0  0  0999 V2000     
   20.3595   18.2709   25.3681 N   0  3  0  0  0  0  0  0  0  0  0  0
   20.5567   17.6945   24.5367 H   0  0  0  0  0  0  0  0  0  0  0  0
   20.3579   17.6094   26.1606 H   0  0  0  0  0  0  0  0  0  0  0  0
   18.9905   18.9168   25.2467 C   0  0  0  0  0  0  0  0  0  0  0  0
   18.9998   19.8437   25.8255 H   0  0  0  0  0  0  0  0  0  0  0  0
   18.2807   18.2371   25.7251 H   0  0  0  0  0  0  0  0  0  0  0  0
   18.4910   19.1902   23.8086 C   0  0  0  0  0  0  0  0  0  0  0  0
   18.3935   18.2440   23.2639 H   0  0  0  0  0  0  0  0  0  0  0  0
   17.4695   19.5833   23.8963 H   0  0  0  0  0  0  0  0  0  0  0  0
   19.3297   20.2185   23.0025 C   0  0  0  0  0  0  0  0  0  0  0  0
   19.7095   20.9904   23.6856 H   0  0  0  0  0  0  0  0  0  0  0  0
   18.6644   20.7473   22.3061 H   0  0  0  0  0  0  0  0  0  0  0  0
   20.5053   19.6183   22.1866 C   0  0  0  0  0  0  0  0  0  0  0  0
   21.1287   20.4463   21.8220 H   0  0  0  0  0  0  0  0  0  0  0  0
   21.1534   19.0114   22.8286 H   0  0  0  0  0  0  0  0  0  0  0  0
   20.0461   18.7757   20.9723 C   0  0  0  0  0  0  0  0  0  0  0  0
   19.3865   19.3774   20.3315 H   0  0  0  0  0  0  0  0  0  0  0  0
   19.4591   17.9100   21.3053 H   0  0  0  0  0  0  0  0  0  0  0  0
   21.2467   18.2758   20.1407 C   0  0  0  0  0  0  0  0  0  0  0  0
   21.9101   17.6436   20.7452 H   0  0  0  0  0  0  0  0  0  0  0  0
   21.8361   19.1166   19.7524 H   0  0  0  0  0  0  0  0  0  0  0  0
   20.9040   17.6813   19.2838 H   0  0  0  0  0  0  0  0  0  0  0  0
   21.4393   19.3240   25.5913 C   0  0  0  0  0  0  0  0  0  0  0  0
   21.4499   20.0191   24.7502 H   0  0  0  0  0  0  0  0  0  0  0  0
   21.2234   19.8667   26.5142 H   0  0  0  0  0  0  0  0  0  0  0  0
   22.4096   18.8294   25.6740 H   0  0  0  0  0  0  0  0  0  0  0  0
  1  2  1  0  0  0  0
  1  3  1  0  0  0  0
  1  4  1  0  0  0  0
  4  5  1  0  0  0  0
  4  6  1  0  0  0  0
  4  7  1  0  0  0  0
  7  8  1  0  0  0  0
  7  9  1  0  0  0  0
  7 10  1  0  0  0  0
 10 11  1  0  0  0  0
 10 12  1  0  0  0  0
 10 13  1  0  0  0  0
 13 14  1  0  0  0  0
 13 15  1  0  0  0  0
 13 16  1  0  0  0  0
 16 17  1  0  0  0  0
 16 18  1  0  0  0  0
 16 19  1  0  0  0  0
 19 20  1  0  0  0  0
 19 21  1  0  0  0  0
 19 22  1  0  0  0  0
  1 23  1  0  0  0  0
 23 24  1  0  0  0  0
 23 25  1  0  0  0  0
 23 26  1  0  0  0  0
M  END
> <VM2 Rank>
190

> <Conf_Id>
553

> <Probability>
0.00

> <Sum Probability>
100.00

> <Delta G>
5.810

> <G>
81.276

> <E>
48.451

> <-TS>
32.824

> <U+W>
26.990

> <U>
77.039

> <W>
-50.050

> <W(PB)>
-52.249

> <W(SA)>
2.200

> <Valence>
6.724

> <Coulomb>
70.181

> <VdW>
0.134

> <VdW6>
-8.757

> <VdW12>
8.891

> <Bond>
0.279

> <Angle>
1.699

> <Pdih>
4.746

> <Idih>
0.000

> <Tether>
0.000

$$$$
VeraChem MOL file


 26 25  0  0  0  0  0  0  0  0999 V2000     
   19.2491   19.0937   24.9398 N   0  3  0  0  0  0  0  0  0  0  0  0
   18.9719   18.2416   25.4516 H   0  0  0  0  0  0  0  0  0  0  0  0
   18.7951   19.0278   24.0169 H   0  0  0  0  0  0  0  0  0  0  0  0
   20.7543   19.1303   24.7652 C   0  0  0  0  0  0  0  0  0  0  0  0
   21.2024   19.1758   25.7610 H   0  0  0  0  0  0  0  0  0  0  0  0
   21.0151   20.0504   24.2388 H   0  0  0  0  0  0  0  0  0  0  0  0
   21.3228   17.9167   24.0046 C   0  0  0  0  0  0  0  0  0  0  0  0
   22.4118   18.0328   23.9253 H   0  0  0  0  0  0  0  0  0  0  0  0
   21.1600   17.0165   24.6120 H   0  0  0  0  0  0  0  0  0  0  0  0
   20.7294   17.6791   22.5896 C   0  0  0  0  0  0  0  0  0  0  0  0
   19.6590   17.4505   22.6525 H   0  0  0  0  0  0  0  0  0  0  0  0
   21.1911   16.7617   22.1989 H   0  0  0  0  0  0  0  0  0  0  0  0
   21.0009   18.8114   21.5604 C   0  0  0  0  0  0  0  0  0  0  0  0
   22.0248   19.1862   21.6951 H   0  0  0  0  0  0  0  0  0  0  0  0
   20.9809   18.3719   20.5534 H   0  0  0  0  0  0  0  0  0  0  0  0
   20.0101   20.0056   21.5743 C   0  0  0  0  0  0  0  0  0  0  0  0
   20.3612   20.7488   20.8448 H   0  0  0  0  0  0  0  0  0  0  0  0
   20.0221   20.5195   22.5415 H   0  0  0  0  0  0  0  0  0  0  0  0
   18.5605   19.6135   21.2051 C   0  0  0  0  0  0  0  0  0  0  0  0
   17.9283   20.5082   21.1342 H   0  0  0  0  0  0  0  0  0  0  0  0
   18.1085   18.9510   21.9517 H   0  0  0  0  0  0  0  0  0  0  0  0
   18.5268   19.1048   20.2329 H   0  0  0  0  0  0  0  0  0  0  0  0
   18.7811   20.3397   25.6781 C   0  0  0  0  0  0  0  0  0  0  0  0
   19.0594   21.2247   25.1018 H   0  0  0  0  0  0  0  0  0  0  0  0
   17.6956   20.3011   25.7940 H   0  0  0  0  0  0  0  0  0  0  0  0
   19.2559   20.3737   26.6611 H   0  0  0  0  0  0  0  0  0  0  0  0
  1  2  1  0  0  0  0
  1  3  1  0  0  0  0
  1  4  1  0  0  0  0
  4  5  1  0  0  0  0
  4  6  1  0  0  0  0
  4  7  1  0  0  0  0
  7  8  1  0  0  0  0
  7  9  1  0  0  0  0
  7 10  1  0  0  0  0
 10 11  1  0  0  0  0
 10 12  1  0  0  0  0
 10 13  1  0  0  0  0
 13 14  1  0  0  0  0
 13 15  1  0  0  0  0
 13 16  1  0  0  0  0
 16 17  1  0  0  0  0
 16 18  1  0  0  0  0
 16 19  1  0  0  0  0
 19 20  1  0  0  0  0
 19 21  1  0  0  0  0
 19 22  1  0  0  0  0
  1 23  1  0  0  0  0
 23 24  1  0  0  0  0
 23 25  1  0  0  0  0
 23 26  1  0  0  0  0
M  END
> <VM2 Rank>
191

> <Conf_Id>
1604

> <Probability>
0.00

> <Sum Probability>
100.00

> <Delta G>
5.838

> <G>
81.304

> <E>
48.161

> <-TS>
33.143

> <U+W>
26.699

> <U>
75.617

> <W>
-48.918

> <W(PB)>
-51.100

> <W(SA)>
2.181

> <Valence>
5.117

> <Coulomb>
70.837

> <VdW>
-0.337

> <VdW6>
-9.232

> <VdW12>
8.895

> <Bond>
0.293

> <Angle>
2.155

> <Pdih>
2.669

> <Idih>
0.000

> <Tether>
0.000

$$$$
VeraChem MOL file


 26 25  0  0  0  0  0  0  0  0999 V2000     
   19.5406   18.6761   25.6525 N   0  3  0  0  0  0  0  0  0  0  0  0
   20.2628   18.3629   26.3197 H   0  0  0  0  0  0  0  0  0  0  0  0
   19.0392   17.8203   25.3688 H   0  0  0  0  0  0  0  0  0  0  0  0
   20.1892   19.3276   24.4480 C   0  0  0  0  0  0  0  0  0  0  0  0
   20.7265   20.2136   24.7955 H   0  0  0  0  0  0  0  0  0  0  0  0
   19.3919   19.6538   23.7781 H   0  0  0  0  0  0  0  0  0  0  0  0
   21.1615   18.3940   23.7003 C   0  0  0  0  0  0  0  0  0  0  0  0
   21.9534   18.0969   24.4007 H   0  0  0  0  0  0  0  0  0  0  0  0
   20.6538   17.4688   23.3979 H   0  0  0  0  0  0  0  0  0  0  0  0
   21.8188   19.0666   22.4697 C   0  0  0  0  0  0  0  0  0  0  0  0
   22.7881   18.5789   22.2963 H   0  0  0  0  0  0  0  0  0  0  0  0
   22.0541   20.1155   22.6976 H   0  0  0  0  0  0  0  0  0  0  0  0
   21.0126   18.9789   21.1452 C   0  0  0  0  0  0  0  0  0  0  0  0
   21.6352   19.4210   20.3550 H   0  0  0  0  0  0  0  0  0  0  0  0
   20.8785   17.9274   20.8560 H   0  0  0  0  0  0  0  0  0  0  0  0
   19.6470   19.7120   21.1398 C   0  0  0  0  0  0  0  0  0  0  0  0
   19.4885   20.1482   20.1434 H   0  0  0  0  0  0  0  0  0  0  0  0
   19.6639   20.5615   21.8359 H   0  0  0  0  0  0  0  0  0  0  0  0
   18.4517   18.7777   21.4421 C   0  0  0  0  0  0  0  0  0  0  0  0
   18.5503   18.2788   22.4121 H   0  0  0  0  0  0  0  0  0  0  0  0
   18.3626   17.9985   20.6739 H   0  0  0  0  0  0  0  0  0  0  0  0
   17.5120   19.3448   21.4505 H   0  0  0  0  0  0  0  0  0  0  0  0
   18.5866   19.6571   26.3195 C   0  0  0  0  0  0  0  0  0  0  0  0
   17.8134   19.9482   25.6051 H   0  0  0  0  0  0  0  0  0  0  0  0
   18.1264   19.1764   27.1856 H   0  0  0  0  0  0  0  0  0  0  0  0
   19.1450   20.5391   26.6406 H   0  0  0  0  0  0  0  0  0  0  0  0
  1  2  1  0  0  0  0
  1  3  1  0  0  0  0
  1  4  1  0  0  0  0
  4  5  1  0  0  0  0
  4  6  1  0  0  0  0
  4  7  1  0  0  0  0
  7  8  1  0  0  0  0
  7  9  1  0  0  0  0
  7 10  1  0  0  0  0
 10 11  1  0  0  0  0
 10 12  1  0  0  0  0
 10 13  1  0  0  0  0
 13 14  1  0  0  0  0
 13 15  1  0  0  0  0
 13 16  1  0  0  0  0
 16 17  1  0  0  0  0
 16 18  1  0  0  0  0
 16 19  1  0  0  0  0
 19 20  1  0  0  0  0
 19 21  1  0  0  0  0
 19 22  1  0  0  0  0
  1 23  1  0  0  0  0
 23 24  1  0  0  0  0
 23 25  1  0  0  0  0
 23 26  1  0  0  0  0
M  END
> <VM2 Rank>
192

> <Conf_Id>
1504

> <Probability>
0.00

> <Sum Probability>
100.00

> <Delta G>
5.923

> <G>
81.389

> <E>
48.350

> <-TS>
33.039

> <U+W>
26.889

> <U>
76.568

> <W>
-49.679

> <W(PB)>
-51.903

> <W(SA)>
2.224

> <Valence>
6.604

> <Coulomb>
70.083

> <VdW>
-0.119

> <VdW6>
-8.384

> <VdW12>
8.265

> <Bond>
0.244

> <Angle>
1.737

> <Pdih>
4.622

> <Idih>
0.000

> <Tether>
0.000

$$$$
VeraChem MOL file


 26 25  0  0  0  0  0  0  0  0999 V2000     
   20.4643   18.7704   25.6852 N   0  3  0  0  0  0  0  0  0  0  0  0
   21.1466   18.0353   25.4435 H   0  0  0  0  0  0  0  0  0  0  0  0
   19.7753   18.3133   26.3025 H   0  0  0  0  0  0  0  0  0  0  0  0
   19.7836   19.2862   24.4336 C   0  0  0  0  0  0  0  0  0  0  0  0
   20.5436   19.7714   23.8190 H   0  0  0  0  0  0  0  0  0  0  0  0
   19.0557   20.0431   24.7363 H   0  0  0  0  0  0  0  0  0  0  0  0
   19.0745   18.1810   23.6264 C   0  0  0  0  0  0  0  0  0  0  0  0
   19.7783   17.3795   23.3669 H   0  0  0  0  0  0  0  0  0  0  0  0
   18.3117   17.7253   24.2717 H   0  0  0  0  0  0  0  0  0  0  0  0
   18.3829   18.7160   22.3480 C   0  0  0  0  0  0  0  0  0  0  0  0
   17.9254   19.6942   22.5513 H   0  0  0  0  0  0  0  0  0  0  0  0
   17.5465   18.0440   22.1106 H   0  0  0  0  0  0  0  0  0  0  0  0
   19.2809   18.8021   21.0839 C   0  0  0  0  0  0  0  0  0  0  0  0
   19.6443   17.8014   20.8123 H   0  0  0  0  0  0  0  0  0  0  0  0
   18.6388   19.1151   20.2489 H   0  0  0  0  0  0  0  0  0  0  0  0
   20.4675   19.7957   21.1688 C   0  0  0  0  0  0  0  0  0  0  0  0
   20.2309   20.6193   21.8559 H   0  0  0  0  0  0  0  0  0  0  0  0
   20.6041   20.2619   20.1829 H   0  0  0  0  0  0  0  0  0  0  0  0
   21.8025   19.1196   21.5608 C   0  0  0  0  0  0  0  0  0  0  0  0
   21.7389   18.6044   22.5251 H   0  0  0  0  0  0  0  0  0  0  0  0
   22.6056   19.8646   21.6309 H   0  0  0  0  0  0  0  0  0  0  0  0
   22.1005   18.3800   20.8064 H   0  0  0  0  0  0  0  0  0  0  0  0
   21.1518   19.9189   26.4103 C   0  0  0  0  0  0  0  0  0  0  0  0
   20.4059   20.6678   26.6853 H   0  0  0  0  0  0  0  0  0  0  0  0
   21.6378   19.5347   27.3099 H   0  0  0  0  0  0  0  0  0  0  0  0
   21.8985   20.3651   25.7497 H   0  0  0  0  0  0  0  0  0  0  0  0
  1  2  1  0  0  0  0
  1  3  1  0  0  0  0
  1  4  1  0  0  0  0
  4  5  1  0  0  0  0
  4  6  1  0  0  0  0
  4  7  1  0  0  0  0
  7  8  1  0  0  0  0
  7  9  1  0  0  0  0
  7 10  1  0  0  0  0
 10 11  1  0  0  0  0
 10 12  1  0  0  0  0
 10 13  1  0  0  0  0
 13 14  1  0  0  0  0
 13 15  1  0  0  0  0
 13 16  1  0  0  0  0
 16 17  1  0  0  0  0
 16 18  1  0  0  0  0
 16 19  1  0  0  0  0
 19 20  1  0  0  0  0
 19 21  1  0  0  0  0
 19 22  1  0  0  0  0
  1 23  1  0  0  0  0
 23 24  1  0  0  0  0
 23 25  1  0  0  0  0
 23 26  1  0  0  0  0
M  END
> <VM2 Rank>
193

> <Conf_Id>
1245

> <Probability>
0.00

> <Sum Probability>
100.00

> <Delta G>
5.957

> <G>
81.423

> <E>
48.384

> <-TS>
33.039

> <U+W>
26.923

> <U>
76.568

> <W>
-49.645

> <W(PB)>
-51.858

> <W(SA)>
2.213

> <Valence>
6.604

> <Coulomb>
70.083

> <VdW>
-0.119

> <VdW6>
-8.383

> <VdW12>
8.264

> <Bond>
0.244

> <Angle>
1.738

> <Pdih>
4.622

> <Idih>
0.000

> <Tether>
0.000

$$$$
VeraChem MOL file


 26 25  0  0  0  0  0  0  0  0999 V2000     
   20.1155   19.6441   25.8028 N   0  3  0  0  0  0  0  0  0  0  0  0
   19.4953   19.1231   26.4416 H   0  0  0  0  0  0  0  0  0  0  0  0
   20.1478   20.6022   26.1860 H   0  0  0  0  0  0  0  0  0  0  0  0
   19.5221   19.6746   24.4045 C   0  0  0  0  0  0  0  0  0  0  0  0
   20.2265   20.1964   23.7544 H   0  0  0  0  0  0  0  0  0  0  0  0
   18.6065   20.2694   24.4545 H   0  0  0  0  0  0  0  0  0  0  0  0
   19.1822   18.2847   23.8236 C   0  0  0  0  0  0  0  0  0  0  0  0
   20.0781   17.6541   23.7633 H   0  0  0  0  0  0  0  0  0  0  0  0
   18.4994   17.7837   24.5224 H   0  0  0  0  0  0  0  0  0  0  0  0
   18.4961   18.3617   22.4370 C   0  0  0  0  0  0  0  0  0  0  0  0
   17.7956   19.2079   22.4127 H   0  0  0  0  0  0  0  0  0  0  0  0
   17.8755   17.4629   22.3172 H   0  0  0  0  0  0  0  0  0  0  0  0
   19.4531   18.4299   21.2158 C   0  0  0  0  0  0  0  0  0  0  0  0
   20.0710   17.5225   21.1719 H   0  0  0  0  0  0  0  0  0  0  0  0
   18.8299   18.4019   20.3112 H   0  0  0  0  0  0  0  0  0  0  0  0
   20.3507   19.6909   21.1362 C   0  0  0  0  0  0  0  0  0  0  0  0
   19.8653   20.5404   21.6352 H   0  0  0  0  0  0  0  0  0  0  0  0
   20.4506   19.9837   20.0815 H   0  0  0  0  0  0  0  0  0  0  0  0
   21.7724   19.4620   21.7006 C   0  0  0  0  0  0  0  0  0  0  0  0
   21.7541   19.1293   22.7437 H   0  0  0  0  0  0  0  0  0  0  0  0
   22.3601   20.3878   21.6531 H   0  0  0  0  0  0  0  0  0  0  0  0
   22.3049   18.6998   21.1170 H   0  0  0  0  0  0  0  0  0  0  0  0
   21.5159   19.0421   25.7966 C   0  0  0  0  0  0  0  0  0  0  0  0
   21.9183   19.0642   26.8118 H   0  0  0  0  0  0  0  0  0  0  0  0
   21.4646   18.0098   25.4448 H   0  0  0  0  0  0  0  0  0  0  0  0
   22.1558   19.6289   25.1340 H   0  0  0  0  0  0  0  0  0  0  0  0
  1  2  1  0  0  0  0
  1  3  1  0  0  0  0
  1  4  1  0  0  0  0
  4  5  1  0  0  0  0
  4  6  1  0  0  0  0
  4  7  1  0  0  0  0
  7  8  1  0  0  0  0
  7  9  1  0  0  0  0
  7 10  1  0  0  0  0
 10 11  1  0  0  0  0
 10 12  1  0  0  0  0
 10 13  1  0  0  0  0
 13 14  1  0  0  0  0
 13 15  1  0  0  0  0
 13 16  1  0  0  0  0
 16 17  1  0  0  0  0
 16 18  1  0  0  0  0
 16 19  1  0  0  0  0
 19 20  1  0  0  0  0
 19 21  1  0  0  0  0
 19 22  1  0  0  0  0
  1 23  1  0  0  0  0
 23 24  1  0  0  0  0
 23 25  1  0  0  0  0
 23 26  1  0  0  0  0
M  END
> <VM2 Rank>
194

> <Conf_Id>
478

> <Probability>
0.00

> <Sum Probability>
100.00

> <Delta G>
5.959

> <G>
81.425

> <E>
48.034

> <-TS>
33.391

> <U+W>
26.572

> <U>
76.813

> <W>
-50.240

> <W(PB)>
-52.373

> <W(SA)>
2.133

> <Valence>
6.903

> <Coulomb>
69.931

> <VdW>
-0.021

> <VdW6>
-9.386

> <VdW12>
9.365

> <Bond>
0.281

> <Angle>
1.859

> <Pdih>
4.763

> <Idih>
0.000

> <Tether>
0.000

$$$$
VeraChem MOL file


 26 25  0  0  0  0  0  0  0  0999 V2000     
   19.9580   19.6817   25.4923 N   0  3  0  0  0  0  0  0  0  0  0  0
   19.6534   19.9823   26.4318 H   0  0  0  0  0  0  0  0  0  0  0  0
   19.6238   20.4170   24.8521 H   0  0  0  0  0  0  0  0  0  0  0  0
   19.3023   18.3565   25.1448 C   0  0  0  0  0  0  0  0  0  0  0  0
   18.2365   18.4520   25.3675 H   0  0  0  0  0  0  0  0  0  0  0  0
   19.7168   17.6017   25.8179 H   0  0  0  0  0  0  0  0  0  0  0  0
   19.4657   17.8836   23.6815 C   0  0  0  0  0  0  0  0  0  0  0  0
   20.5272   17.7568   23.4414 H   0  0  0  0  0  0  0  0  0  0  0  0
   19.0227   16.8814   23.6135 H   0  0  0  0  0  0  0  0  0  0  0  0
   18.7573   18.7961   22.6440 C   0  0  0  0  0  0  0  0  0  0  0  0
   17.8260   19.1753   23.0871 H   0  0  0  0  0  0  0  0  0  0  0  0
   18.4415   18.1892   21.7844 H   0  0  0  0  0  0  0  0  0  0  0  0
   19.6052   19.9921   22.1305 C   0  0  0  0  0  0  0  0  0  0  0  0
   18.9261   20.8336   21.9349 H   0  0  0  0  0  0  0  0  0  0  0  0
   20.3004   20.3442   22.9007 H   0  0  0  0  0  0  0  0  0  0  0  0
   20.3855   19.7087   20.8215 C   0  0  0  0  0  0  0  0  0  0  0  0
   20.8757   20.6378   20.4985 H   0  0  0  0  0  0  0  0  0  0  0  0
   19.6805   19.4435   20.0212 H   0  0  0  0  0  0  0  0  0  0  0  0
   21.4563   18.6030   20.9500 C   0  0  0  0  0  0  0  0  0  0  0  0
   22.1546   18.8210   21.7682 H   0  0  0  0  0  0  0  0  0  0  0  0
   22.0398   18.5247   20.0236 H   0  0  0  0  0  0  0  0  0  0  0  0
   20.9986   17.6230   21.1330 H   0  0  0  0  0  0  0  0  0  0  0  0
   21.4778   19.5682   25.4523 C   0  0  0  0  0  0  0  0  0  0  0  0
   21.7934   19.2970   24.4428 H   0  0  0  0  0  0  0  0  0  0  0  0
   21.9156   20.5299   25.7290 H   0  0  0  0  0  0  0  0  0  0  0  0
   21.7983   18.8001   26.1594 H   0  0  0  0  0  0  0  0  0  0  0  0
  1  2  1  0  0  0  0
  1  3  1  0  0  0  0
  1  4  1  0  0  0  0
  4  5  1  0  0  0  0
  4  6  1  0  0  0  0
  4  7  1  0  0  0  0
  7  8  1  0  0  0  0
  7  9  1  0  0  0  0
  7 10  1  0  0  0  0
 10 11  1  0  0  0  0
 10 12  1  0  0  0  0
 10 13  1  0  0  0  0
 13 14  1  0  0  0  0
 13 15  1  0  0  0  0
 13 16  1  0  0  0  0
 16 17  1  0  0  0  0
 16 18  1  0  0  0  0
 16 19  1  0  0  0  0
 19 20  1  0  0  0  0
 19 21  1  0  0  0  0
 19 22  1  0  0  0  0
  1 23  1  0  0  0  0
 23 24  1  0  0  0  0
 23 25  1  0  0  0  0
 23 26  1  0  0  0  0
M  END
> <VM2 Rank>
195

> <Conf_Id>
801

> <Probability>
0.00

> <Sum Probability>
100.00

> <Delta G>
6.460

> <G>
81.926

> <E>
48.691

> <-TS>
33.234

> <U+W>
27.229

> <U>
77.340

> <W>
-50.110

> <W(PB)>
-52.264

> <W(SA)>
2.154

> <Valence>
6.847

> <Coulomb>
70.349

> <VdW>
0.144

> <VdW6>
-9.591

> <VdW12>
9.735

> <Bond>
0.315

> <Angle>
1.724

> <Pdih>
4.808

> <Idih>
0.000

> <Tether>
0.000

$$$$
VeraChem MOL file


 26 25  0  0  0  0  0  0  0  0999 V2000     
   19.7602   19.3607   25.4709 N   0  3  0  0  0  0  0  0  0  0  0  0
   19.4402   18.6353   26.1312 H   0  0  0  0  0  0  0  0  0  0  0  0
   18.9049   19.7273   25.0276 H   0  0  0  0  0  0  0  0  0  0  0  0
   20.6697   18.7482   24.4236 C   0  0  0  0  0  0  0  0  0  0  0  0
   20.9951   19.5476   23.7562 H   0  0  0  0  0  0  0  0  0  0  0  0
   21.5503   18.3603   24.9419 H   0  0  0  0  0  0  0  0  0  0  0  0
   20.0149   17.6101   23.6120 C   0  0  0  0  0  0  0  0  0  0  0  0
   20.7720   17.1253   22.9820 H   0  0  0  0  0  0  0  0  0  0  0  0
   19.6757   16.8403   24.3178 H   0  0  0  0  0  0  0  0  0  0  0  0
   18.8135   18.0529   22.7354 C   0  0  0  0  0  0  0  0  0  0  0  0
   18.1769   18.7606   23.2817 H   0  0  0  0  0  0  0  0  0  0  0  0
   18.1829   17.1695   22.5635 H   0  0  0  0  0  0  0  0  0  0  0  0
   19.1756   18.6363   21.3427 C   0  0  0  0  0  0  0  0  0  0  0  0
   19.7033   17.8804   20.7448 H   0  0  0  0  0  0  0  0  0  0  0  0
   18.2319   18.8207   20.8107 H   0  0  0  0  0  0  0  0  0  0  0  0
   19.9793   19.9613   21.3584 C   0  0  0  0  0  0  0  0  0  0  0  0
   19.7778   20.5232   22.2803 H   0  0  0  0  0  0  0  0  0  0  0  0
   19.6205   20.5989   20.5383 H   0  0  0  0  0  0  0  0  0  0  0  0
   21.4993   19.7504   21.1644 C   0  0  0  0  0  0  0  0  0  0  0  0
   21.7085   19.3108   20.1804 H   0  0  0  0  0  0  0  0  0  0  0  0
   21.9247   19.0842   21.9229 H   0  0  0  0  0  0  0  0  0  0  0  0
   22.0321   20.7084   21.2204 H   0  0  0  0  0  0  0  0  0  0  0  0
   20.4955   20.4701   26.2096 C   0  0  0  0  0  0  0  0  0  0  0  0
   20.7958   21.2396   25.4951 H   0  0  0  0  0  0  0  0  0  0  0  0
   19.8302   20.9029   26.9601 H   0  0  0  0  0  0  0  0  0  0  0  0
   21.3791   20.0524   26.6970 H   0  0  0  0  0  0  0  0  0  0  0  0
  1  2  1  0  0  0  0
  1  3  1  0  0  0  0
  1  4  1  0  0  0  0
  4  5  1  0  0  0  0
  4  6  1  0  0  0  0
  4  7  1  0  0  0  0
  7  8  1  0  0  0  0
  7  9  1  0  0  0  0
  7 10  1  0  0  0  0
 10 11  1  0  0  0  0
 10 12  1  0  0  0  0
 10 13  1  0  0  0  0
 13 14  1  0  0  0  0
 13 15  1  0  0  0  0
 13 16  1  0  0  0  0
 16 17  1  0  0  0  0
 16 18  1  0  0  0  0
 16 19  1  0  0  0  0
 19 20  1  0  0  0  0
 19 21  1  0  0  0  0
 19 22  1  0  0  0  0
  1 23  1  0  0  0  0
 23 24  1  0  0  0  0
 23 25  1  0  0  0  0
 23 26  1  0  0  0  0
M  END
> <VM2 Rank>
196

> <Conf_Id>
576

> <Probability>
0.00

> <Sum Probability>
100.00

> <Delta G>
6.483

> <G>
81.949

> <E>
48.856

> <-TS>
33.093

> <U+W>
27.394

> <U>
77.061

> <W>
-49.668

> <W(PB)>
-51.856

> <W(SA)>
2.188

> <Valence>
6.801

> <Coulomb>
70.342

> <VdW>
-0.081

> <VdW6>
-8.958

> <VdW12>
8.877

> <Bond>
0.269

> <Angle>
1.891

> <Pdih>
4.641

> <Idih>
0.000

> <Tether>
0.000

$$$$
VeraChem MOL file


 26 25  0  0  0  0  0  0  0  0999 V2000     
   20.6271   18.9959   25.2917 N   0  3  0  0  0  0  0  0  0  0  0  0
   20.9654   19.8345   24.7963 H   0  0  0  0  0  0  0  0  0  0  0  0
   21.1959   18.2115   24.9375 H   0  0  0  0  0  0  0  0  0  0  0  0
   19.1645   18.7655   24.9700 C   0  0  0  0  0  0  0  0  0  0  0  0
   18.5993   19.6154   25.3606 H   0  0  0  0  0  0  0  0  0  0  0  0
   18.8474   17.8707   25.5116 H   0  0  0  0  0  0  0  0  0  0  0  0
   18.8533   18.5875   23.4684 C   0  0  0  0  0  0  0  0  0  0  0  0
   19.3915   17.7160   23.0772 H   0  0  0  0  0  0  0  0  0  0  0  0
   17.7853   18.3475   23.3814 H   0  0  0  0  0  0  0  0  0  0  0  0
   19.1402   19.8534   22.6167 C   0  0  0  0  0  0  0  0  0  0  0  0
   18.9208   20.7442   23.2217 H   0  0  0  0  0  0  0  0  0  0  0  0
   18.4322   19.8937   21.7774 H   0  0  0  0  0  0  0  0  0  0  0  0
   20.5874   19.9516   22.0608 C   0  0  0  0  0  0  0  0  0  0  0  0
   20.8776   21.0113   22.0441 H   0  0  0  0  0  0  0  0  0  0  0  0
   21.3022   19.4565   22.7285 H   0  0  0  0  0  0  0  0  0  0  0  0
   20.7566   19.3975   20.6231 C   0  0  0  0  0  0  0  0  0  0  0  0
   21.7864   19.5911   20.2917 H   0  0  0  0  0  0  0  0  0  0  0  0
   20.1062   19.9543   19.9340 H   0  0  0  0  0  0  0  0  0  0  0  0
   20.4693   17.8854   20.4916 C   0  0  0  0  0  0  0  0  0  0  0  0
   20.6960   17.5388   19.4751 H   0  0  0  0  0  0  0  0  0  0  0  0
   19.4136   17.6604   20.6875 H   0  0  0  0  0  0  0  0  0  0  0  0
   21.0853   17.3033   21.1890 H   0  0  0  0  0  0  0  0  0  0  0  0
   20.8096   19.1532   26.7947 C   0  0  0  0  0  0  0  0  0  0  0  0
   20.4700   18.2434   27.2946 H   0  0  0  0  0  0  0  0  0  0  0  0
   21.8669   19.3208   27.0118 H   0  0  0  0  0  0  0  0  0  0  0  0
   20.2222   20.0066   27.1404 H   0  0  0  0  0  0  0  0  0  0  0  0
  1  2  1  0  0  0  0
  1  3  1  0  0  0  0
  1  4  1  0  0  0  0
  4  5  1  0  0  0  0
  4  6  1  0  0  0  0
  4  7  1  0  0  0  0
  7  8  1  0  0  0  0
  7  9  1  0  0  0  0
  7 10  1  0  0  0  0
 10 11  1  0  0  0  0
 10 12  1  0  0  0  0
 10 13  1  0  0  0  0
 13 14  1  0  0  0  0
 13 15  1  0  0  0  0
 13 16  1  0  0  0  0
 16 17  1  0  0  0  0
 16 18  1  0  0  0  0
 16 19  1  0  0  0  0
 19 20  1  0  0  0  0
 19 21  1  0  0  0  0
 19 22  1  0  0  0  0
  1 23  1  0  0  0  0
 23 24  1  0  0  0  0
 23 25  1  0  0  0  0
 23 26  1  0  0  0  0
M  END
> <VM2 Rank>
197

> <Conf_Id>
539

> <Probability>
0.00

> <Sum Probability>
100.00

> <Delta G>
6.507

> <G>
81.973

> <E>
49.206

> <-TS>
32.767

> <U+W>
27.744

> <U>
77.266

> <W>
-49.522

> <W(PB)>
-51.736

> <W(SA)>
2.214

> <Valence>
6.548

> <Coulomb>
70.467

> <VdW>
0.250

> <VdW6>
-8.286

> <VdW12>
8.537

> <Bond>
0.272

> <Angle>
1.407

> <Pdih>
4.870

> <Idih>
0.000

> <Tether>
0.000

$$$$
VeraChem MOL file


 26 25  0  0  0  0  0  0  0  0999 V2000     
   20.8226   19.5707   25.2843 N   0  3  0  0  0  0  0  0  0  0  0  0
   20.5398   20.4600   24.8469 H   0  0  0  0  0  0  0  0  0  0  0  0
   21.8276   19.6810   25.4929 H   0  0  0  0  0  0  0  0  0  0  0  0
   20.6289   18.4211   24.3075 C   0  0  0  0  0  0  0  0  0  0  0  0
   20.9171   17.5015   24.8229 H   0  0  0  0  0  0  0  0  0  0  0  0
   21.3295   18.5751   23.4853 H   0  0  0  0  0  0  0  0  0  0  0  0
   19.1973   18.2652   23.7423 C   0  0  0  0  0  0  0  0  0  0  0  0
   19.1477   17.3650   23.1162 H   0  0  0  0  0  0  0  0  0  0  0  0
   18.5121   18.0789   24.5791 H   0  0  0  0  0  0  0  0  0  0  0  0
   18.6837   19.4879   22.9368 C   0  0  0  0  0  0  0  0  0  0  0  0
   18.9679   20.4240   23.4343 H   0  0  0  0  0  0  0  0  0  0  0  0
   17.5854   19.4681   22.9655 H   0  0  0  0  0  0  0  0  0  0  0  0
   19.1027   19.5345   21.4423 C   0  0  0  0  0  0  0  0  0  0  0  0
   18.6988   18.6607   20.9126 H   0  0  0  0  0  0  0  0  0  0  0  0
   18.6049   20.4038   20.9906 H   0  0  0  0  0  0  0  0  0  0  0  0
   20.6235   19.6645   21.1749 C   0  0  0  0  0  0  0  0  0  0  0  0
   21.1225   20.1583   22.0193 H   0  0  0  0  0  0  0  0  0  0  0  0
   20.7726   20.3295   20.3125 H   0  0  0  0  0  0  0  0  0  0  0  0
   21.2995   18.3112   20.8521 C   0  0  0  0  0  0  0  0  0  0  0  0
   20.8913   17.8834   19.9272 H   0  0  0  0  0  0  0  0  0  0  0  0
   21.1542   17.5754   21.6507 H   0  0  0  0  0  0  0  0  0  0  0  0
   22.3796   18.4438   20.7085 H   0  0  0  0  0  0  0  0  0  0  0  0
   20.0498   19.3348   26.5768 C   0  0  0  0  0  0  0  0  0  0  0  0
   20.3796   18.3953   27.0255 H   0  0  0  0  0  0  0  0  0  0  0  0
   20.2441   20.1604   27.2650 H   0  0  0  0  0  0  0  0  0  0  0  0
   18.9818   19.2855   26.3553 H   0  0  0  0  0  0  0  0  0  0  0  0
  1  2  1  0  0  0  0
  1  3  1  0  0  0  0
  1  4  1  0  0  0  0
  4  5  1  0  0  0  0
  4  6  1  0  0  0  0
  4  7  1  0  0  0  0
  7  8  1  0  0  0  0
  7  9  1  0  0  0  0
  7 10  1  0  0  0  0
 10 11  1  0  0  0  0
 10 12  1  0  0  0  0
 10 13  1  0  0  0  0
 13 14  1  0  0  0  0
 13 15  1  0  0  0  0
 13 16  1  0  0  0  0
 16 17  1  0  0  0  0
 16 18  1  0  0  0  0
 16 19  1  0  0  0  0
 19 20  1  0  0  0  0
 19 21  1  0  0  0  0
 19 22  1  0  0  0  0
  1 23  1  0  0  0  0
 23 24  1  0  0  0  0
 23 25  1  0  0  0  0
 23 26  1  0  0  0  0
M  END
> <VM2 Rank>
198

> <Conf_Id>
191

> <Probability>
0.00

> <Sum Probability>
100.00

> <Delta G>
6.813

> <G>
82.279

> <E>
48.970

> <-TS>
33.309

> <U+W>
27.508

> <U>
77.692

> <W>
-50.184

> <W(PB)>
-52.352

> <W(SA)>
2.168

> <Valence>
7.097

> <Coulomb>
70.376

> <VdW>
0.219

> <VdW6>
-9.694

> <VdW12>
9.913

> <Bond>
0.317

> <Angle>
2.059

> <Pdih>
4.721

> <Idih>
0.000

> <Tether>
0.000

$$$$
VeraChem MOL file


 26 25  0  0  0  0  0  0  0  0999 V2000     
   20.7480   18.8776   24.8498 N   0  3  0  0  0  0  0  0  0  0  0  0
   21.0796   18.7957   23.8768 H   0  0  0  0  0  0  0  0  0  0  0  0
   20.8415   17.9348   25.2589 H   0  0  0  0  0  0  0  0  0  0  0  0
   19.2937   19.3081   24.8592 C   0  0  0  0  0  0  0  0  0  0  0  0
   19.2296   20.3265   24.4682 H   0  0  0  0  0  0  0  0  0  0  0  0
   18.9738   19.3243   25.9041 H   0  0  0  0  0  0  0  0  0  0  0  0
   18.3569   18.3804   24.0582 C   0  0  0  0  0  0  0  0  0  0  0  0
   18.6029   17.3315   24.2704 H   0  0  0  0  0  0  0  0  0  0  0  0
   17.3366   18.5296   24.4358 H   0  0  0  0  0  0  0  0  0  0  0  0
   18.3359   18.6254   22.5252 C   0  0  0  0  0  0  0  0  0  0  0  0
   17.9569   19.6346   22.3118 H   0  0  0  0  0  0  0  0  0  0  0  0
   17.5963   17.9372   22.0928 H   0  0  0  0  0  0  0  0  0  0  0  0
   19.6861   18.3979   21.7979 C   0  0  0  0  0  0  0  0  0  0  0  0
   20.2790   17.6400   22.3268 H   0  0  0  0  0  0  0  0  0  0  0  0
   19.4803   17.9708   20.8063 H   0  0  0  0  0  0  0  0  0  0  0  0
   20.4967   19.7015   21.5933 C   0  0  0  0  0  0  0  0  0  0  0  0
   20.5975   20.2582   22.5325 H   0  0  0  0  0  0  0  0  0  0  0  0
   19.9493   20.3637   20.9077 H   0  0  0  0  0  0  0  0  0  0  0  0
   21.8981   19.4174   21.0125 C   0  0  0  0  0  0  0  0  0  0  0  0
   22.4502   20.3535   20.8575 H   0  0  0  0  0  0  0  0  0  0  0  0
   21.8268   18.9057   20.0437 H   0  0  0  0  0  0  0  0  0  0  0  0
   22.4896   18.7864   21.6883 H   0  0  0  0  0  0  0  0  0  0  0  0
   21.5926   19.8818   25.6211 C   0  0  0  0  0  0  0  0  0  0  0  0
   22.6365   19.5606   25.6037 H   0  0  0  0  0  0  0  0  0  0  0  0
   21.5007   20.8640   25.1524 H   0  0  0  0  0  0  0  0  0  0  0  0
   21.2389   19.9299   26.6533 H   0  0  0  0  0  0  0  0  0  0  0  0
  1  2  1  0  0  0  0
  1  3  1  0  0  0  0
  1  4  1  0  0  0  0
  4  5  1  0  0  0  0
  4  6  1  0  0  0  0
  4  7  1  0  0  0  0
  7  8  1  0  0  0  0
  7  9  1  0  0  0  0
  7 10  1  0  0  0  0
 10 11  1  0  0  0  0
 10 12  1  0  0  0  0
 10 13  1  0  0  0  0
 13 14  1  0  0  0  0
 13 15  1  0  0  0  0
 13 16  1  0  0  0  0
 16 17  1  0  0  0  0
 16 18  1  0  0  0  0
 16 19  1  0  0  0  0
 19 20  1  0  0  0  0
 19 21  1  0  0  0  0
 19 22  1  0  0  0  0
  1 23  1  0  0  0  0
 23 24  1  0  0  0  0
 23 25  1  0  0  0  0
 23 26  1  0  0  0  0
M  END
> <VM2 Rank>
199

> <Conf_Id>
107

> <Probability>
0.00

> <Sum Probability>
100.00

> <Delta G>
7.040

> <G>
82.506

> <E>
49.521

> <-TS>
32.986

> <U+W>
28.059

> <U>
76.549

> <W>
-48.490

> <W(PB)>
-50.670

> <W(SA)>
2.180

> <Valence>
5.809

> <Coulomb>
71.051

> <VdW>
-0.311

> <VdW6>
-8.913

> <VdW12>
8.601

> <Bond>
0.232

> <Angle>
1.493

> <Pdih>
4.084

> <Idih>
0.000

> <Tether>
0.000

$$$$
VeraChem MOL file


 26 25  0  0  0  0  0  0  0  0999 V2000     
   19.3004   18.7299   24.7983 N   0  3  0  0  0  0  0  0  0  0  0  0
   19.3705   17.7847   25.2066 H   0  0  0  0  0  0  0  0  0  0  0  0
   19.0612   18.5899   23.8051 H   0  0  0  0  0  0  0  0  0  0  0  0
   20.6336   19.4448   24.9066 C   0  0  0  0  0  0  0  0  0  0  0  0
   20.8696   19.5177   25.9713 H   0  0  0  0  0  0  0  0  0  0  0  0
   20.5183   20.4580   24.5139 H   0  0  0  0  0  0  0  0  0  0  0  0
   21.7921   18.7309   24.1799 C   0  0  0  0  0  0  0  0  0  0  0  0
   22.7323   19.0802   24.6270 H   0  0  0  0  0  0  0  0  0  0  0  0
   21.7485   17.6524   24.3820 H   0  0  0  0  0  0  0  0  0  0  0  0
   21.8706   18.9860   22.6504 C   0  0  0  0  0  0  0  0  0  0  0  0
   22.7622   18.4642   22.2758 H   0  0  0  0  0  0  0  0  0  0  0  0
   22.0523   20.0523   22.4569 H   0  0  0  0  0  0  0  0  0  0  0  0
   20.6483   18.4960   21.8320 C   0  0  0  0  0  0  0  0  0  0  0  0
   21.0050   18.1263   20.8604 H   0  0  0  0  0  0  0  0  0  0  0  0
   20.1849   17.6304   22.3235 H   0  0  0  0  0  0  0  0  0  0  0  0
   19.6078   19.6108   21.5618 C   0  0  0  0  0  0  0  0  0  0  0  0
   20.0570   20.3746   20.9114 H   0  0  0  0  0  0  0  0  0  0  0  0
   19.3315   20.1292   22.4876 H   0  0  0  0  0  0  0  0  0  0  0  0
   18.3366   19.0541   20.8866 C   0  0  0  0  0  0  0  0  0  0  0  0
   17.6193   19.8607   20.6866 H   0  0  0  0  0  0  0  0  0  0  0  0
   17.8387   18.3121   21.5240 H   0  0  0  0  0  0  0  0  0  0  0  0
   18.5772   18.5741   19.9289 H   0  0  0  0  0  0  0  0  0  0  0  0
   18.2186   19.5375   25.5014 C   0  0  0  0  0  0  0  0  0  0  0  0
   18.1432   20.5215   25.0334 H   0  0  0  0  0  0  0  0  0  0  0  0
   17.2648   19.0126   25.4131 H   0  0  0  0  0  0  0  0  0  0  0  0
   18.4821   19.6486   26.5555 H   0  0  0  0  0  0  0  0  0  0  0  0
  1  2  1  0  0  0  0
  1  3  1  0  0  0  0
  1  4  1  0  0  0  0
  4  5  1  0  0  0  0
  4  6  1  0  0  0  0
  4  7  1  0  0  0  0
  7  8  1  0  0  0  0
  7  9  1  0  0  0  0
  7 10  1  0  0  0  0
 10 11  1  0  0  0  0
 10 12  1  0  0  0  0
 10 13  1  0  0  0  0
 13 14  1  0  0  0  0
 13 15  1  0  0  0  0
 13 16  1  0  0  0  0
 16 17  1  0  0  0  0
 16 18  1  0  0  0  0
 16 19  1  0  0  0  0
 19 20  1  0  0  0  0
 19 21  1  0  0  0  0
 19 22  1  0  0  0  0
  1 23  1  0  0  0  0
 23 24  1  0  0  0  0
 23 25  1  0  0  0  0
 23 26  1  0  0  0  0
M  END
> <VM2 Rank>
200

> <Conf_Id>
1193

> <Probability>
0.00

> <Sum Probability>
100.00

> <Delta G>
7.049

> <G>
82.515

> <E>
49.529

> <-TS>
32.986

> <U+W>
28.067

> <U>
76.549

> <W>
-48.482

> <W(PB)>
-50.645

> <W(SA)>
2.163

> <Valence>
5.808

> <Coulomb>
71.052

> <VdW>
-0.311

> <VdW6>
-8.914

> <VdW12>
8.602

> <Bond>
0.232

> <Angle>
1.493

> <Pdih>
4.083

> <Idih>
0.000

> <Tether>
0.000

$$$$
VeraChem MOL file


 26 25  0  0  0  0  0  0  0  0999 V2000     
   20.6042   19.3143   25.1190 N   0  3  0  0  0  0  0  0  0  0  0  0
   21.1773   19.3815   24.2651 H   0  0  0  0  0  0  0  0  0  0  0  0
   21.0425   18.5767   25.6923 H   0  0  0  0  0  0  0  0  0  0  0  0
   19.1863   18.9179   24.7558 C   0  0  0  0  0  0  0  0  0  0  0  0
   18.7273   19.7373   24.1971 H   0  0  0  0  0  0  0  0  0  0  0  0
   18.6397   18.7983   25.6947 H   0  0  0  0  0  0  0  0  0  0  0  0
   19.0871   17.6108   23.9432 C   0  0  0  0  0  0  0  0  0  0  0  0
   19.7807   16.8638   24.3515 H   0  0  0  0  0  0  0  0  0  0  0  0
   18.0809   17.1986   24.0964 H   0  0  0  0  0  0  0  0  0  0  0  0
   19.3061   17.7688   22.4147 C   0  0  0  0  0  0  0  0  0  0  0  0
   18.5221   18.4117   21.9949 H   0  0  0  0  0  0  0  0  0  0  0  0
   19.1492   16.7820   21.9577 H   0  0  0  0  0  0  0  0  0  0  0  0
   20.7127   18.2726   21.9923 C   0  0  0  0  0  0  0  0  0  0  0  0
   21.4586   17.9523   22.7317 H   0  0  0  0  0  0  0  0  0  0  0  0
   21.0015   17.7694   21.0591 H   0  0  0  0  0  0  0  0  0  0  0  0
   20.8068   19.8040   21.7627 C   0  0  0  0  0  0  0  0  0  0  0  0
   21.8669   20.0885   21.7056 H   0  0  0  0  0  0  0  0  0  0  0  0
   20.3832   20.3559   22.6104 H   0  0  0  0  0  0  0  0  0  0  0  0
   20.1073   20.2615   20.4621 C   0  0  0  0  0  0  0  0  0  0  0  0
   20.2470   21.3395   20.3095 H   0  0  0  0  0  0  0  0  0  0  0  0
   19.0279   20.0693   20.4915 H   0  0  0  0  0  0  0  0  0  0  0  0
   20.5224   19.7443   19.5874 H   0  0  0  0  0  0  0  0  0  0  0  0
   20.5976   20.6399   25.8671 C   0  0  0  0  0  0  0  0  0  0  0  0
   20.1565   21.4099   25.2303 H   0  0  0  0  0  0  0  0  0  0  0  0
   20.0085   20.5333   26.7806 H   0  0  0  0  0  0  0  0  0  0  0  0
   21.6242   20.9137   26.1204 H   0  0  0  0  0  0  0  0  0  0  0  0
  1  2  1  0  0  0  0
  1  3  1  0  0  0  0
  1  4  1  0  0  0  0
  4  5  1  0  0  0  0
  4  6  1  0  0  0  0
  4  7  1  0  0  0  0
  7  8  1  0  0  0  0
  7  9  1  0  0  0  0
  7 10  1  0  0  0  0
 10 11  1  0  0  0  0
 10 12  1  0  0  0  0
 10 13  1  0  0  0  0
 13 14  1  0  0  0  0
 13 15  1  0  0  0  0
 13 16  1  0  0  0  0
 16 17  1  0  0  0  0
 16 18  1  0  0  0  0
 16 19  1  0  0  0  0
 19 20  1  0  0  0  0
 19 21  1  0  0  0  0
 19 22  1  0  0  0  0
  1 23  1  0  0  0  0
 23 24  1  0  0  0  0
 23 25  1  0  0  0  0
 23 26  1  0  0  0  0
M  END
> <VM2 Rank>
201

> <Conf_Id>
440

> <Probability>
0.00

> <Sum Probability>
100.00

> <Delta G>
7.243

> <G>
82.709

> <E>
49.730

> <-TS>
32.980

> <U+W>
28.268

> <U>
77.517

> <W>
-49.249

> <W(PB)>
-51.417

> <W(SA)>
2.168

> <Valence>
6.532

> <Coulomb>
71.087

> <VdW>
-0.102

> <VdW6>
-9.038

> <VdW12>
8.935

> <Bond>
0.274

> <Angle>
1.678

> <Pdih>
4.581

> <Idih>
0.000

> <Tether>
0.000

$$$$
VeraChem MOL file


 26 25  0  0  0  0  0  0  0  0999 V2000     
   19.0556   18.6588   24.6574 N   0  3  0  0  0  0  0  0  0  0  0  0
   19.1869   18.2919   23.7028 H   0  0  0  0  0  0  0  0  0  0  0  0
   18.0337   18.7058   24.7980 H   0  0  0  0  0  0  0  0  0  0  0  0
   19.6474   20.0563   24.7562 C   0  0  0  0  0  0  0  0  0  0  0  0
   19.5559   20.3669   25.8000 H   0  0  0  0  0  0  0  0  0  0  0  0
   19.0303   20.7267   24.1528 H   0  0  0  0  0  0  0  0  0  0  0  0
   21.1224   20.1910   24.3129 C   0  0  0  0  0  0  0  0  0  0  0  0
   21.5099   21.1278   24.7345 H   0  0  0  0  0  0  0  0  0  0  0  0
   21.7284   19.3940   24.7617 H   0  0  0  0  0  0  0  0  0  0  0  0
   21.3523   20.2333   22.7783 C   0  0  0  0  0  0  0  0  0  0  0  0
   22.4261   20.3962   22.6110 H   0  0  0  0  0  0  0  0  0  0  0  0
   20.8522   21.1119   22.3477 H   0  0  0  0  0  0  0  0  0  0  0  0
   20.9363   18.9507   22.0133 C   0  0  0  0  0  0  0  0  0  0  0  0
   21.6700   18.7647   21.2165 H   0  0  0  0  0  0  0  0  0  0  0  0
   20.9951   18.0775   22.6767 H   0  0  0  0  0  0  0  0  0  0  0  0
   19.5387   19.0622   21.3562 C   0  0  0  0  0  0  0  0  0  0  0  0
   19.5730   19.8200   20.5607 H   0  0  0  0  0  0  0  0  0  0  0  0
   18.7902   19.4158   22.0755 H   0  0  0  0  0  0  0  0  0  0  0  0
   19.0810   17.7164   20.7551 C   0  0  0  0  0  0  0  0  0  0  0  0
   18.0967   17.8190   20.2800 H   0  0  0  0  0  0  0  0  0  0  0  0
   19.0025   16.9402   21.5273 H   0  0  0  0  0  0  0  0  0  0  0  0
   19.7873   17.3661   19.9911 H   0  0  0  0  0  0  0  0  0  0  0  0
   19.6744   17.7213   25.6877 C   0  0  0  0  0  0  0  0  0  0  0  0
   19.5118   18.1302   26.6873 H   0  0  0  0  0  0  0  0  0  0  0  0
   19.1995   16.7408   25.6093 H   0  0  0  0  0  0  0  0  0  0  0  0
   20.7448   17.6265   25.4958 H   0  0  0  0  0  0  0  0  0  0  0  0
  1  2  1  0  0  0  0
  1  3  1  0  0  0  0
  1  4  1  0  0  0  0
  4  5  1  0  0  0  0
  4  6  1  0  0  0  0
  4  7  1  0  0  0  0
  7  8  1  0  0  0  0
  7  9  1  0  0  0  0
  7 10  1  0  0  0  0
 10 11  1  0  0  0  0
 10 12  1  0  0  0  0
 10 13  1  0  0  0  0
 13 14  1  0  0  0  0
 13 15  1  0  0  0  0
 13 16  1  0  0  0  0
 16 17  1  0  0  0  0
 16 18  1  0  0  0  0
 16 19  1  0  0  0  0
 19 20  1  0  0  0  0
 19 21  1  0  0  0  0
 19 22  1  0  0  0  0
  1 23  1  0  0  0  0
 23 24  1  0  0  0  0
 23 25  1  0  0  0  0
 23 26  1  0  0  0  0
M  END
> <VM2 Rank>
202

> <Conf_Id>
696

> <Probability>
0.00

> <Sum Probability>
100.00

> <Delta G>
7.512

> <G>
82.978

> <E>
49.845

> <-TS>
33.133

> <U+W>
28.383

> <U>
77.224

> <W>
-48.841

> <W(PB)>
-51.015

> <W(SA)>
2.174

> <Valence>
6.170

> <Coulomb>
71.061

> <VdW>
-0.008

> <VdW6>
-9.540

> <VdW12>
9.532

> <Bond>
0.273

> <Angle>
1.632

> <Pdih>
4.265

> <Idih>
0.000

> <Tether>
0.000

$$$$
VeraChem MOL file


 26 25  0  0  0  0  0  0  0  0999 V2000     
   20.2013   20.0907   24.9241 N   0  3  0  0  0  0  0  0  0  0  0  0
   19.7231   20.3324   24.0440 H   0  0  0  0  0  0  0  0  0  0  0  0
   20.8309   20.8842   25.1238 H   0  0  0  0  0  0  0  0  0  0  0  0
   21.0224   18.8252   24.7339 C   0  0  0  0  0  0  0  0  0  0  0  0
   21.4336   18.5636   25.7122 H   0  0  0  0  0  0  0  0  0  0  0  0
   21.8591   19.0624   24.0721 H   0  0  0  0  0  0  0  0  0  0  0  0
   20.2549   17.6109   24.1632 C   0  0  0  0  0  0  0  0  0  0  0  0
   20.8336   16.7104   24.4074 H   0  0  0  0  0  0  0  0  0  0  0  0
   19.2929   17.4907   24.6770 H   0  0  0  0  0  0  0  0  0  0  0  0
   20.0407   17.6311   22.6264 C   0  0  0  0  0  0  0  0  0  0  0  0
   19.5614   16.6821   22.3489 H   0  0  0  0  0  0  0  0  0  0  0  0
   21.0138   17.6255   22.1189 H   0  0  0  0  0  0  0  0  0  0  0  0
   19.1515   18.7887   22.0981 C   0  0  0  0  0  0  0  0  0  0  0  0
   18.5073   18.4028   21.2958 H   0  0  0  0  0  0  0  0  0  0  0  0
   18.4604   19.1158   22.8863 H   0  0  0  0  0  0  0  0  0  0  0  0
   19.9447   19.9998   21.5419 C   0  0  0  0  0  0  0  0  0  0  0  0
   20.7223   20.3157   22.2481 H   0  0  0  0  0  0  0  0  0  0  0  0
   19.2594   20.8518   21.4299 H   0  0  0  0  0  0  0  0  0  0  0  0
   20.5956   19.7112   20.1696 C   0  0  0  0  0  0  0  0  0  0  0  0
   21.3404   18.9086   20.2337 H   0  0  0  0  0  0  0  0  0  0  0  0
   21.1051   20.6063   19.7899 H   0  0  0  0  0  0  0  0  0  0  0  0
   19.8408   19.4175   19.4286 H   0  0  0  0  0  0  0  0  0  0  0  0
   19.1969   19.9323   26.0598 C   0  0  0  0  0  0  0  0  0  0  0  0
   19.7322   19.6878   26.9798 H   0  0  0  0  0  0  0  0  0  0  0  0
   18.6527   20.8705   26.1887 H   0  0  0  0  0  0  0  0  0  0  0  0
   18.4956   19.1322   25.8155 H   0  0  0  0  0  0  0  0  0  0  0  0
  1  2  1  0  0  0  0
  1  3  1  0  0  0  0
  1  4  1  0  0  0  0
  4  5  1  0  0  0  0
  4  6  1  0  0  0  0
  4  7  1  0  0  0  0
  7  8  1  0  0  0  0
  7  9  1  0  0  0  0
  7 10  1  0  0  0  0
 10 11  1  0  0  0  0
 10 12  1  0  0  0  0
 10 13  1  0  0  0  0
 13 14  1  0  0  0  0
 13 15  1  0  0  0  0
 13 16  1  0  0  0  0
 16 17  1  0  0  0  0
 16 18  1  0  0  0  0
 16 19  1  0  0  0  0
 19 20  1  0  0  0  0
 19 21  1  0  0  0  0
 19 22  1  0  0  0  0
  1 23  1  0  0  0  0
 23 24  1  0  0  0  0
 23 25  1  0  0  0  0
 23 26  1  0  0  0  0
M  END
> <VM2 Rank>
203

> <Conf_Id>
281

> <Probability>
0.00

> <Sum Probability>
100.00

> <Delta G>
7.521

> <G>
82.987

> <E>
49.907

> <-TS>
33.080

> <U+W>
28.445

> <U>
78.200

> <W>
-49.755

> <W(PB)>
-51.918

> <W(SA)>
2.163

> <Valence>
6.881

> <Coulomb>
71.120

> <VdW>
0.199

> <VdW6>
-9.620

> <VdW12>
9.819

> <Bond>
0.310

> <Angle>
1.755

> <Pdih>
4.816

> <Idih>
0.000

> <Tether>
0.000

$$$$
VeraChem MOL file


 26 25  0  0  0  0  0  0  0  0999 V2000     
   21.0123   18.8622   24.7267 N   0  3  0  0  0  0  0  0  0  0  0  0
   21.9903   19.1171   24.9379 H   0  0  0  0  0  0  0  0  0  0  0  0
   21.0260   18.4827   23.7681 H   0  0  0  0  0  0  0  0  0  0  0  0
   20.1406   20.1075   24.7735 C   0  0  0  0  0  0  0  0  0  0  0  0
   20.6474   20.8947   24.2097 H   0  0  0  0  0  0  0  0  0  0  0  0
   20.0931   20.4230   25.8188 H   0  0  0  0  0  0  0  0  0  0  0  0
   18.7040   19.9394   24.2272 C   0  0  0  0  0  0  0  0  0  0  0  0
   18.2449   19.0317   24.6385 H   0  0  0  0  0  0  0  0  0  0  0  0
   18.1038   20.7735   24.6139 H   0  0  0  0  0  0  0  0  0  0  0  0
   18.5782   19.9446   22.6800 C   0  0  0  0  0  0  0  0  0  0  0  0
   18.9157   20.9104   22.2790 H   0  0  0  0  0  0  0  0  0  0  0  0
   17.5082   19.8845   22.4370 H   0  0  0  0  0  0  0  0  0  0  0  0
   19.3013   18.7807   21.9553 C   0  0  0  0  0  0  0  0  0  0  0  0
   19.3770   17.9092   22.6193 H   0  0  0  0  0  0  0  0  0  0  0  0
   18.6792   18.4536   21.1105 H   0  0  0  0  0  0  0  0  0  0  0  0
   20.6886   19.1818   21.3969 C   0  0  0  0  0  0  0  0  0  0  0  0
   21.2963   19.6763   22.1642 H   0  0  0  0  0  0  0  0  0  0  0  0
   20.5551   19.9223   20.5955 H   0  0  0  0  0  0  0  0  0  0  0  0
   21.4541   17.9633   20.8389 C   0  0  0  0  0  0  0  0  0  0  0  0
   20.8900   17.4810   20.0299 H   0  0  0  0  0  0  0  0  0  0  0  0
   21.6363   17.2142   21.6202 H   0  0  0  0  0  0  0  0  0  0  0  0
   22.4270   18.2695   20.4330 H   0  0  0  0  0  0  0  0  0  0  0  0
   20.5289   17.8104   25.7185 C   0  0  0  0  0  0  0  0  0  0  0  0
   19.5168   17.4991   25.4531 H   0  0  0  0  0  0  0  0  0  0  0  0
   21.1994   16.9490   25.6808 H   0  0  0  0  0  0  0  0  0  0  0  0
   20.5338   18.2371   26.7238 H   0  0  0  0  0  0  0  0  0  0  0  0
  1  2  1  0  0  0  0
  1  3  1  0  0  0  0
  1  4  1  0  0  0  0
  4  5  1  0  0  0  0
  4  6  1  0  0  0  0
  4  7  1  0  0  0  0
  7  8  1  0  0  0  0
  7  9  1  0  0  0  0
  7 10  1  0  0  0  0
 10 11  1  0  0  0  0
 10 12  1  0  0  0  0
 10 13  1  0  0  0  0
 13 14  1  0  0  0  0
 13 15  1  0  0  0  0
 13 16  1  0  0  0  0
 16 17  1  0  0  0  0
 16 18  1  0  0  0  0
 16 19  1  0  0  0  0
 19 20  1  0  0  0  0
 19 21  1  0  0  0  0
 19 22  1  0  0  0  0
  1 23  1  0  0  0  0
 23 24  1  0  0  0  0
 23 25  1  0  0  0  0
 23 26  1  0  0  0  0
M  END
> <VM2 Rank>
204

> <Conf_Id>
111

> <Probability>
0.00

> <Sum Probability>
100.00

> <Delta G>
7.534

> <G>
83.000

> <E>
49.866

> <-TS>
33.133

> <U+W>
28.405

> <U>
77.224

> <W>
-48.819

> <W(PB)>
-51.002

> <W(SA)>
2.183

> <Valence>
6.170

> <Coulomb>
71.061

> <VdW>
-0.008

> <VdW6>
-9.539

> <VdW12>
9.531

> <Bond>
0.273

> <Angle>
1.632

> <Pdih>
4.265

> <Idih>
0.000

> <Tether>
0.000

$$$$
VeraChem MOL file


 26 25  0  0  0  0  0  0  0  0999 V2000     
   19.5907   20.0304   24.9024 N   0  3  0  0  0  0  0  0  0  0  0  0
   18.8057   20.6844   25.0515 H   0  0  0  0  0  0  0  0  0  0  0  0
   20.0735   20.3670   24.0566 H   0  0  0  0  0  0  0  0  0  0  0  0
   19.0479   18.6304   24.6635 C   0  0  0  0  0  0  0  0  0  0  0  0
   18.6277   18.2867   25.6121 H   0  0  0  0  0  0  0  0  0  0  0  0
   18.2297   18.7043   23.9427 H   0  0  0  0  0  0  0  0  0  0  0  0
   20.0760   17.5934   24.1568 C   0  0  0  0  0  0  0  0  0  0  0  0
   21.0044   17.6598   24.7378 H   0  0  0  0  0  0  0  0  0  0  0  0
   19.6686   16.5954   24.3660 H   0  0  0  0  0  0  0  0  0  0  0  0
   20.3896   17.6655   22.6387 C   0  0  0  0  0  0  0  0  0  0  0  0
   19.4746   17.4733   22.0641 H   0  0  0  0  0  0  0  0  0  0  0  0
   21.0635   16.8304   22.4023 H   0  0  0  0  0  0  0  0  0  0  0  0
   21.0704   18.9782   22.1661 C   0  0  0  0  0  0  0  0  0  0  0  0
   21.6272   19.4285   22.9986 H   0  0  0  0  0  0  0  0  0  0  0  0
   21.8323   18.7311   21.4137 H   0  0  0  0  0  0  0  0  0  0  0  0
   20.0970   20.0148   21.5473 C   0  0  0  0  0  0  0  0  0  0  0  0
   20.6087   20.9850   21.4777 H   0  0  0  0  0  0  0  0  0  0  0  0
   19.2250   20.1678   22.1950 H   0  0  0  0  0  0  0  0  0  0  0  0
   19.6128   19.6141   20.1348 C   0  0  0  0  0  0  0  0  0  0  0  0
   18.9662   20.3951   19.7140 H   0  0  0  0  0  0  0  0  0  0  0  0
   19.0365   18.6811   20.1520 H   0  0  0  0  0  0  0  0  0  0  0  0
   20.4605   19.4786   19.4506 H   0  0  0  0  0  0  0  0  0  0  0  0
   20.5237   20.0632   26.1073 C   0  0  0  0  0  0  0  0  0  0  0  0
   20.8639   21.0886   26.2679 H   0  0  0  0  0  0  0  0  0  0  0  0
   19.9828   19.7125   26.9889 H   0  0  0  0  0  0  0  0  0  0  0  0
   21.3832   19.4171   25.9188 H   0  0  0  0  0  0  0  0  0  0  0  0
  1  2  1  0  0  0  0
  1  3  1  0  0  0  0
  1  4  1  0  0  0  0
  4  5  1  0  0  0  0
  4  6  1  0  0  0  0
  4  7  1  0  0  0  0
  7  8  1  0  0  0  0
  7  9  1  0  0  0  0
  7 10  1  0  0  0  0
 10 11  1  0  0  0  0
 10 12  1  0  0  0  0
 10 13  1  0  0  0  0
 13 14  1  0  0  0  0
 13 15  1  0  0  0  0
 13 16  1  0  0  0  0
 16 17  1  0  0  0  0
 16 18  1  0  0  0  0
 16 19  1  0  0  0  0
 19 20  1  0  0  0  0
 19 21  1  0  0  0  0
 19 22  1  0  0  0  0
  1 23  1  0  0  0  0
 23 24  1  0  0  0  0
 23 25  1  0  0  0  0
 23 26  1  0  0  0  0
M  END
> <VM2 Rank>
205

> <Conf_Id>
1371

> <Probability>
0.00

> <Sum Probability>
100.00

> <Delta G>
7.567

> <G>
83.033

> <E>
49.953

> <-TS>
33.080

> <U+W>
28.491

> <U>
78.200

> <W>
-49.709

> <W(PB)>
-51.908

> <W(SA)>
2.199

> <Valence>
6.881

> <Coulomb>
71.120

> <VdW>
0.199

> <VdW6>
-9.619

> <VdW12>
9.819

> <Bond>
0.310

> <Angle>
1.755

> <Pdih>
4.816

> <Idih>
0.000

> <Tether>
0.000

$$$$
VeraChem MOL file


 26 25  0  0  0  0  0  0  0  0999 V2000     
   20.6116   18.5402   25.4911 N   0  3  0  0  0  0  0  0  0  0  0  0
   21.2705   18.1662   24.7925 H   0  0  0  0  0  0  0  0  0  0  0  0
   20.8049   18.0069   26.3535 H   0  0  0  0  0  0  0  0  0  0  0  0
   19.1783   18.2853   25.0548 C   0  0  0  0  0  0  0  0  0  0  0  0
   18.5338   19.0058   25.5644 H   0  0  0  0  0  0  0  0  0  0  0  0
   18.9149   17.2901   25.4220 H   0  0  0  0  0  0  0  0  0  0  0  0
   18.9120   18.3124   23.5310 C   0  0  0  0  0  0  0  0  0  0  0  0
   19.5310   17.5547   23.0365 H   0  0  0  0  0  0  0  0  0  0  0  0
   17.8726   17.9925   23.3802 H   0  0  0  0  0  0  0  0  0  0  0  0
   19.0886   19.7006   22.8601 C   0  0  0  0  0  0  0  0  0  0  0  0
   18.8108   20.4814   23.5812 H   0  0  0  0  0  0  0  0  0  0  0  0
   18.3681   19.8001   22.0365 H   0  0  0  0  0  0  0  0  0  0  0  0
   20.5164   19.9778   22.3153 C   0  0  0  0  0  0  0  0  0  0  0  0
   20.7266   21.0497   22.4338 H   0  0  0  0  0  0  0  0  0  0  0  0
   21.2711   19.4574   22.9177 H   0  0  0  0  0  0  0  0  0  0  0  0
   20.7106   19.6256   20.8183 C   0  0  0  0  0  0  0  0  0  0  0  0
   21.7192   19.9377   20.5131 H   0  0  0  0  0  0  0  0  0  0  0  0
   20.0126   20.2151   20.2074 H   0  0  0  0  0  0  0  0  0  0  0  0
   20.5363   18.1256   20.4930 C   0  0  0  0  0  0  0  0  0  0  0  0
   21.2029   17.5072   21.1077 H   0  0  0  0  0  0  0  0  0  0  0  0
   20.7762   17.9312   19.4397 H   0  0  0  0  0  0  0  0  0  0  0  0
   19.5029   17.7976   20.6605 H   0  0  0  0  0  0  0  0  0  0  0  0
   20.8542   20.0223   25.7535 C   0  0  0  0  0  0  0  0  0  0  0  0
   20.1723   20.3628   26.5357 H   0  0  0  0  0  0  0  0  0  0  0  0
   21.8871   20.1629   26.0795 H   0  0  0  0  0  0  0  0  0  0  0  0
   20.6771   20.5894   24.8388 H   0  0  0  0  0  0  0  0  0  0  0  0
  1  2  1  0  0  0  0
  1  3  1  0  0  0  0
  1  4  1  0  0  0  0
  4  5  1  0  0  0  0
  4  6  1  0  0  0  0
  4  7  1  0  0  0  0
  7  8  1  0  0  0  0
  7  9  1  0  0  0  0
  7 10  1  0  0  0  0
 10 11  1  0  0  0  0
 10 12  1  0  0  0  0
 10 13  1  0  0  0  0
 13 14  1  0  0  0  0
 13 15  1  0  0  0  0
 13 16  1  0  0  0  0
 16 17  1  0  0  0  0
 16 18  1  0  0  0  0
 16 19  1  0  0  0  0
 19 20  1  0  0  0  0
 19 21  1  0  0  0  0
 19 22  1  0  0  0  0
  1 23  1  0  0  0  0
 23 24  1  0  0  0  0
 23 25  1  0  0  0  0
 23 26  1  0  0  0  0
M  END
> <VM2 Rank>
206

> <Conf_Id>
279

> <Probability>
0.00

> <Sum Probability>
100.00

> <Delta G>
7.926

> <G>
83.392

> <E>
50.058

> <-TS>
33.334

> <U+W>
28.596

> <U>
78.886

> <W>
-50.289

> <W(PB)>
-52.434

> <W(SA)>
2.145

> <Valence>
8.514

> <Coulomb>
70.280

> <VdW>
0.092

> <VdW6>
-9.823

> <VdW12>
9.915

> <Bond>
0.314

> <Angle>
1.918

> <Pdih>
6.283

> <Idih>
0.000

> <Tether>
0.000

$$$$
VeraChem MOL file


 26 25  0  0  0  0  0  0  0  0999 V2000     
   19.4206   18.5064   24.7817 N   0  3  0  0  0  0  0  0  0  0  0  0
   19.5728   17.5049   24.5875 H   0  0  0  0  0  0  0  0  0  0  0  0
   18.9064   18.8732   23.9681 H   0  0  0  0  0  0  0  0  0  0  0  0
   20.7519   19.2174   24.9109 C   0  0  0  0  0  0  0  0  0  0  0  0
   21.2959   18.7284   25.7230 H   0  0  0  0  0  0  0  0  0  0  0  0
   20.5610   20.2519   25.2067 H   0  0  0  0  0  0  0  0  0  0  0  0
   21.6205   19.1966   23.6351 C   0  0  0  0  0  0  0  0  0  0  0  0
   22.6549   19.3953   23.9454 H   0  0  0  0  0  0  0  0  0  0  0  0
   21.6409   18.1957   23.1903 H   0  0  0  0  0  0  0  0  0  0  0  0
   21.2383   20.2731   22.5859 C   0  0  0  0  0  0  0  0  0  0  0  0
   22.0182   20.2985   21.8124 H   0  0  0  0  0  0  0  0  0  0  0  0
   21.2809   21.2568   23.0738 H   0  0  0  0  0  0  0  0  0  0  0  0
   19.8575   20.1346   21.8884 C   0  0  0  0  0  0  0  0  0  0  0  0
   19.0373   20.1427   22.6154 H   0  0  0  0  0  0  0  0  0  0  0  0
   19.7135   21.0498   21.2972 H   0  0  0  0  0  0  0  0  0  0  0  0
   19.7270   18.9376   20.9098 C   0  0  0  0  0  0  0  0  0  0  0  0
   20.6900   18.7420   20.4178 H   0  0  0  0  0  0  0  0  0  0  0  0
   19.0352   19.2274   20.1064 H   0  0  0  0  0  0  0  0  0  0  0  0
   19.1828   17.6394   21.5483 C   0  0  0  0  0  0  0  0  0  0  0  0
   19.8789   17.2144   22.2775 H   0  0  0  0  0  0  0  0  0  0  0  0
   19.0233   16.8770   20.7746 H   0  0  0  0  0  0  0  0  0  0  0  0
   18.2174   17.8126   22.0406 H   0  0  0  0  0  0  0  0  0  0  0  0
   18.6093   18.6850   26.0570 C   0  0  0  0  0  0  0  0  0  0  0  0
   18.4357   19.7500   26.2260 H   0  0  0  0  0  0  0  0  0  0  0  0
   17.6534   18.1676   25.9495 H   0  0  0  0  0  0  0  0  0  0  0  0
   19.1646   18.2630   26.8975 H   0  0  0  0  0  0  0  0  0  0  0  0
  1  2  1  0  0  0  0
  1  3  1  0  0  0  0
  1  4  1  0  0  0  0
  4  5  1  0  0  0  0
  4  6  1  0  0  0  0
  4  7  1  0  0  0  0
  7  8  1  0  0  0  0
  7  9  1  0  0  0  0
  7 10  1  0  0  0  0
 10 11  1  0  0  0  0
 10 12  1  0  0  0  0
 10 13  1  0  0  0  0
 13 14  1  0  0  0  0
 13 15  1  0  0  0  0
 13 16  1  0  0  0  0
 16 17  1  0  0  0  0
 16 18  1  0  0  0  0
 16 19  1  0  0  0  0
 19 20  1  0  0  0  0
 19 21  1  0  0  0  0
 19 22  1  0  0  0  0
  1 23  1  0  0  0  0
 23 24  1  0  0  0  0
 23 25  1  0  0  0  0
 23 26  1  0  0  0  0
M  END
> <VM2 Rank>
207

> <Conf_Id>
852

> <Probability>
0.00

> <Sum Probability>
100.00

> <Delta G>
8.541

> <G>
84.007

> <E>
50.996

> <-TS>
33.012

> <U+W>
29.534

> <U>
78.058

> <W>
-48.524

> <W(PB)>
-50.675

> <W(SA)>
2.150

> <Valence>
6.916

> <Coulomb>
71.698

> <VdW>
-0.555

> <VdW6>
-9.227

> <VdW12>
8.672

> <Bond>
0.274

> <Angle>
2.757

> <Pdih>
3.885

> <Idih>
0.000

> <Tether>
0.000

$$$$
VeraChem MOL file


 26 25  0  0  0  0  0  0  0  0999 V2000     
   20.6777   18.6357   24.8262 N   0  3  0  0  0  0  0  0  0  0  0  0
   21.1621   19.1050   24.0477 H   0  0  0  0  0  0  0  0  0  0  0  0
   20.7464   17.6256   24.6294 H   0  0  0  0  0  0  0  0  0  0  0  0
   19.2239   19.0600   24.8567 C   0  0  0  0  0  0  0  0  0  0  0  0
   19.1792   20.1097   25.1574 H   0  0  0  0  0  0  0  0  0  0  0  0
   18.7354   18.4650   25.6325 H   0  0  0  0  0  0  0  0  0  0  0  0
   18.4690   18.8717   23.5236 C   0  0  0  0  0  0  0  0  0  0  0  0
   18.6841   17.8908   23.0858 H   0  0  0  0  0  0  0  0  0  0  0  0
   17.3967   18.8533   23.7594 H   0  0  0  0  0  0  0  0  0  0  0  0
   18.6963   20.0109   22.4957 C   0  0  0  0  0  0  0  0  0  0  0  0
   18.4199   20.9617   22.9722 H   0  0  0  0  0  0  0  0  0  0  0  0
   17.9838   19.8821   21.6693 H   0  0  0  0  0  0  0  0  0  0  0  0
   20.1218   20.1619   21.8978 C   0  0  0  0  0  0  0  0  0  0  0  0
   20.1173   21.0915   21.3116 H   0  0  0  0  0  0  0  0  0  0  0  0
   20.8701   20.3317   22.6805 H   0  0  0  0  0  0  0  0  0  0  0  0
   20.5619   19.0238   20.9394 C   0  0  0  0  0  0  0  0  0  0  0  0
   21.2350   19.4544   20.1846 H   0  0  0  0  0  0  0  0  0  0  0  0
   19.6960   18.6398   20.3823 H   0  0  0  0  0  0  0  0  0  0  0  0
   21.3129   17.8589   21.6238 C   0  0  0  0  0  0  0  0  0  0  0  0
   22.1857   18.2215   22.1815 H   0  0  0  0  0  0  0  0  0  0  0  0
   21.6782   17.1508   20.8686 H   0  0  0  0  0  0  0  0  0  0  0  0
   20.6683   17.2957   22.3053 H   0  0  0  0  0  0  0  0  0  0  0  0
   21.3445   18.9671   26.1537 C   0  0  0  0  0  0  0  0  0  0  0  0
   20.8293   18.4352   26.9565 H   0  0  0  0  0  0  0  0  0  0  0  0
   22.3908   18.6557   26.1171 H   0  0  0  0  0  0  0  0  0  0  0  0
   21.2857   20.0440   26.3262 H   0  0  0  0  0  0  0  0  0  0  0  0
  1  2  1  0  0  0  0
  1  3  1  0  0  0  0
  1  4  1  0  0  0  0
  4  5  1  0  0  0  0
  4  6  1  0  0  0  0
  4  7  1  0  0  0  0
  7  8  1  0  0  0  0
  7  9  1  0  0  0  0
  7 10  1  0  0  0  0
 10 11  1  0  0  0  0
 10 12  1  0  0  0  0
 10 13  1  0  0  0  0
 13 14  1  0  0  0  0
 13 15  1  0  0  0  0
 13 16  1  0  0  0  0
 16 17  1  0  0  0  0
 16 18  1  0  0  0  0
 16 19  1  0  0  0  0
 19 20  1  0  0  0  0
 19 21  1  0  0  0  0
 19 22  1  0  0  0  0
  1 23  1  0  0  0  0
 23 24  1  0  0  0  0
 23 25  1  0  0  0  0
 23 26  1  0  0  0  0
M  END
> <VM2 Rank>
208

> <Conf_Id>
159

> <Probability>
0.00

> <Sum Probability>
100.00

> <Delta G>
8.649

> <G>
84.115

> <E>
51.102

> <-TS>
33.012

> <U+W>
29.641

> <U>
78.058

> <W>
-48.418

> <W(PB)>
-50.581

> <W(SA)>
2.164

> <Valence>
6.916

> <Coulomb>
71.697

> <VdW>
-0.556

> <VdW6>
-9.228

> <VdW12>
8.672

> <Bond>
0.274

> <Angle>
2.757

> <Pdih>
3.885

> <Idih>
0.000

> <Tether>
0.000

$$$$
