@<TRIPOS>MOLECULE
guest-s12_vm2.mol2 : vm2 ligand conformer 1
          26          25           1
SMALL
USER_CHARGES
 
@<TRIPOS>ATOM
       1    N1      19.983737   18.623831   26.486096 N.4        1 MOL1        -0.4857
       2    H1      20.862835   18.085453   26.533122 H          1 MOL1         0.3650
       3    H2      19.230354   17.918724   26.475468 H          1 MOL1         0.3650
       4    C1      19.944132   19.450657   25.216599 C.3        1 MOL1         0.0209
       5    H3      20.759661   20.176732   25.263831 H          1 MOL1         0.0967
       6    H4      18.997454   19.996618   25.201488 H          1 MOL1         0.0967
       7    C2      20.075731   18.606497   23.935923 C.3        1 MOL1        -0.1378
       8    H5      21.020356   18.047010   23.962982 H          1 MOL1         0.0993
       9    H6      19.264050   17.867570   23.900779 H          1 MOL1         0.0993
      10    C3      20.030322   19.489972   22.669488 C.3        1 MOL1        -0.1338
      11    H7      20.840397   20.231510   22.711116 H          1 MOL1         0.0993
      12    H8      19.086193   20.052137   22.648891 H          1 MOL1         0.0993
      13    C4      20.161785   18.652811   21.376718 C.3        1 MOL1        -0.1338
      14    H9      21.105820   18.090747   21.397061 H          1 MOL1         0.0993
      15    H10     19.351828   17.911361   21.334861 H          1 MOL1         0.0993
      16    C5      20.116289   19.536732   20.110298 C.3        1 MOL1        -0.1313
      17    H11     20.926279   20.278774   20.146184 H          1 MOL1         0.0993
      18    H12     19.172471   20.099323   20.083948 H          1 MOL1         0.0993
      19    C6      20.247902   18.697440   18.821441 C.3        1 MOL1        -0.2328
      20    H13     19.431295   17.968263   18.739847 H          1 MOL1         0.1004
      21    H14     21.198838   18.149201   18.802513 H          1 MOL1         0.1004
      22    H15     20.213375   19.342210   17.933687 H          1 MOL1         0.1004
      23    C7      19.848102   19.532059   27.700436 C.3        1 MOL1        -0.0781
      24    H16     18.896658   20.065626   27.645403 H          1 MOL1         0.0978
      25    H17     19.878204   18.924231   28.607514 H          1 MOL1         0.0978
      26    H18     20.673641   20.247177   27.708093 H          1 MOL1         0.0978
@<TRIPOS>BOND
    1     1     2    1
    2     1     3    1
    3     1     4    1
    4     4     5    1
    5     4     6    1
    6     4     7    1
    7     7     8    1
    8     7     9    1
    9     7    10    1
   10    10    11    1
   11    10    12    1
   12    10    13    1
   13    13    14    1
   14    13    15    1
   15    13    16    1
   16    16    17    1
   17    16    18    1
   18    16    19    1
   19    19    20    1
   20    19    21    1
   21    19    22    1
   22     1    23    1
   23    23    24    1
   24    23    25    1
   25    23    26    1
@<TRIPOS>SUBSTRUCTURE
       1 MOL1            1 RESIDUE      1      MOL     
@<SCITEGIC>MOL_PROPERTY
VM2 Rank
SciTegic.value.IntegerValue
1

@<SCITEGIC>MOL_PROPERTY
Conf_Id
SciTegic.value.IntegerValue
1411

@<SCITEGIC>MOL_PROPERTY
Probability
SciTegic.value.DoubleValue
6.92

@<SCITEGIC>MOL_PROPERTY
Sum Probability
SciTegic.value.DoubleValue
6.92

@<SCITEGIC>MOL_PROPERTY
Delta G
SciTegic.value.DoubleValue
0.000

@<SCITEGIC>MOL_PROPERTY
G
SciTegic.value.DoubleValue
75.466

@<SCITEGIC>MOL_PROPERTY
E
SciTegic.value.DoubleValue
43.303

@<SCITEGIC>MOL_PROPERTY
-TS
SciTegic.value.DoubleValue
32.163

@<SCITEGIC>MOL_PROPERTY
U+W
SciTegic.value.DoubleValue
21.842

@<SCITEGIC>MOL_PROPERTY
U
SciTegic.value.DoubleValue
70.357

@<SCITEGIC>MOL_PROPERTY
W
SciTegic.value.DoubleValue
-48.515

@<SCITEGIC>MOL_PROPERTY
W(PB)
SciTegic.value.DoubleValue
-50.856

@<SCITEGIC>MOL_PROPERTY
W(SA)
SciTegic.value.DoubleValue
2.341

@<SCITEGIC>MOL_PROPERTY
Valence
SciTegic.value.DoubleValue
1.714

@<SCITEGIC>MOL_PROPERTY
Coulomb
SciTegic.value.DoubleValue
68.480

@<SCITEGIC>MOL_PROPERTY
VdW
SciTegic.value.DoubleValue
0.163

@<SCITEGIC>MOL_PROPERTY
VdW6
SciTegic.value.DoubleValue
-5.268

@<SCITEGIC>MOL_PROPERTY
VdW12
SciTegic.value.DoubleValue
5.431

@<SCITEGIC>MOL_PROPERTY
Bond
SciTegic.value.DoubleValue
0.126

@<SCITEGIC>MOL_PROPERTY
Angle
SciTegic.value.DoubleValue
0.350

@<SCITEGIC>MOL_PROPERTY
Pdih
SciTegic.value.DoubleValue
1.238

@<SCITEGIC>MOL_PROPERTY
Idih
SciTegic.value.DoubleValue
0.000

@<SCITEGIC>MOL_PROPERTY
Tether
SciTegic.value.DoubleValue
0.000

@<TRIPOS>MOLECULE
guest-s12_vm2.mol2 : vm2 ligand conformer 2
          26          25           1
SMALL
USER_CHARGES
 
@<TRIPOS>ATOM
       1    N1      20.392321   19.003614   26.622238 N.4        1 MOL1        -0.4857
       2    H1      20.862879   19.562901   27.351465 H          1 MOL1         0.3650
       3    H2      20.876382   18.092525   26.632122 H          1 MOL1         0.3650
       4    C1      20.568729   19.677737   25.271816 C.3        1 MOL1         0.0209
       5    H3      21.630028   19.915960   25.164270 H          1 MOL1         0.0967
       6    H4      20.010528   20.617160   25.289049 H          1 MOL1         0.0967
       7    C2      20.122507   18.824447   24.067067 C.3        1 MOL1        -0.1378
       8    H5      20.652029   17.862692   24.086049 H          1 MOL1         0.0993
       9    H6      19.050191   18.603405   24.145494 H          1 MOL1         0.0993
      10    C3      20.403096   19.546342   22.730461 C.3        1 MOL1        -0.1338
      11    H7      21.476422   19.769372   22.652919 H          1 MOL1         0.0993
      12    H8      19.876681   20.510987   22.718133 H          1 MOL1         0.0993
      13    C4      19.961625   18.700862   21.514048 C.3        1 MOL1        -0.1338
      14    H9      20.487719   17.736188   21.526446 H          1 MOL1         0.0993
      15    H10     18.888349   18.478046   21.591221 H          1 MOL1         0.0993
      16    C5      20.242472   19.423134   20.177401 C.3        1 MOL1        -0.1313
      17    H11     21.315494   19.646061   20.094200 H          1 MOL1         0.0993
      18    H12     19.716323   20.387926   20.159065 H          1 MOL1         0.0993
      19    C6      19.800296   18.575974   18.965094 C.3        1 MOL1        -0.2328
      20    H13     20.335195   17.617704   18.936724 H          1 MOL1         0.1004
      21    H14     20.007713   19.105164   18.025965 H          1 MOL1         0.1004
      22    H15     18.723501   18.365393   19.002083 H          1 MOL1         0.1004
      23    C7      18.916954   18.837890   26.968874 C.3        1 MOL1        -0.0781
      24    H16     18.831491   18.385313   27.959310 H          1 MOL1         0.0978
      25    H17     18.436111   19.818521   26.969010 H          1 MOL1         0.0978
      26    H18     18.441508   18.191775   26.228240 H          1 MOL1         0.0978
@<TRIPOS>BOND
    1     1     2    1
    2     1     3    1
    3     1     4    1
    4     4     5    1
    5     4     6    1
    6     4     7    1
    7     7     8    1
    8     7     9    1
    9     7    10    1
   10    10    11    1
   11    10    12    1
   12    10    13    1
   13    13    14    1
   14    13    15    1
   15    13    16    1
   16    16    17    1
   17    16    18    1
   18    16    19    1
   19    19    20    1
   20    19    21    1
   21    19    22    1
   22     1    23    1
   23    23    24    1
   24    23    25    1
   25    23    26    1
@<TRIPOS>SUBSTRUCTURE
       1 MOL1            1 RESIDUE      1      MOL     
@<SCITEGIC>MOL_PROPERTY
VM2 Rank
SciTegic.value.IntegerValue
2

@<SCITEGIC>MOL_PROPERTY
Conf_Id
SciTegic.value.IntegerValue
1192

@<SCITEGIC>MOL_PROPERTY
Probability
SciTegic.value.DoubleValue
4.26

@<SCITEGIC>MOL_PROPERTY
Sum Probability
SciTegic.value.DoubleValue
11.17

@<SCITEGIC>MOL_PROPERTY
Delta G
SciTegic.value.DoubleValue
0.290

@<SCITEGIC>MOL_PROPERTY
G
SciTegic.value.DoubleValue
75.756

@<SCITEGIC>MOL_PROPERTY
E
SciTegic.value.DoubleValue
43.422

@<SCITEGIC>MOL_PROPERTY
-TS
SciTegic.value.DoubleValue
32.333

@<SCITEGIC>MOL_PROPERTY
U+W
SciTegic.value.DoubleValue
21.960

@<SCITEGIC>MOL_PROPERTY
U
SciTegic.value.DoubleValue
70.745

@<SCITEGIC>MOL_PROPERTY
W
SciTegic.value.DoubleValue
-48.785

@<SCITEGIC>MOL_PROPERTY
W(PB)
SciTegic.value.DoubleValue
-51.114

@<SCITEGIC>MOL_PROPERTY
W(SA)
SciTegic.value.DoubleValue
2.329

@<SCITEGIC>MOL_PROPERTY
Valence
SciTegic.value.DoubleValue
1.993

@<SCITEGIC>MOL_PROPERTY
Coulomb
SciTegic.value.DoubleValue
68.323

@<SCITEGIC>MOL_PROPERTY
VdW
SciTegic.value.DoubleValue
0.429

@<SCITEGIC>MOL_PROPERTY
VdW6
SciTegic.value.DoubleValue
-5.973

@<SCITEGIC>MOL_PROPERTY
VdW12
SciTegic.value.DoubleValue
6.402

@<SCITEGIC>MOL_PROPERTY
Bond
SciTegic.value.DoubleValue
0.161

@<SCITEGIC>MOL_PROPERTY
Angle
SciTegic.value.DoubleValue
0.472

@<SCITEGIC>MOL_PROPERTY
Pdih
SciTegic.value.DoubleValue
1.360

@<SCITEGIC>MOL_PROPERTY
Idih
SciTegic.value.DoubleValue
0.000

@<SCITEGIC>MOL_PROPERTY
Tether
SciTegic.value.DoubleValue
0.000

@<TRIPOS>MOLECULE
guest-s12_vm2.mol2 : vm2 ligand conformer 3
          26          25           1
SMALL
USER_CHARGES
 
@<TRIPOS>ATOM
       1    N1      19.498433   18.912261   26.590596 N.4        1 MOL1        -0.4857
       2    H1      19.209002   17.922099   26.573183 H          1 MOL1         0.3650
       3    H2      18.874746   19.359726   27.281095 H          1 MOL1         0.3650
       4    C1      19.284286   19.546380   25.226323 C.3        1 MOL1         0.0209
       5    H3      19.638372   20.579130   25.275815 H          1 MOL1         0.0967
       6    H4      18.206922   19.565815   25.043065 H          1 MOL1         0.0967
       7    C2      19.977049   18.809572   24.061921 C.3        1 MOL1        -0.1378
       8    H5      21.063738   18.809423   24.216774 H          1 MOL1         0.0993
       9    H6      19.652986   17.760485   24.050718 H          1 MOL1         0.0993
      10    C3      19.650498   19.469304   22.703801 C.3        1 MOL1        -0.1338
      11    H7      19.970360   20.520579   22.721442 H          1 MOL1         0.0993
      12    H8      18.562369   19.471066   22.549668 H          1 MOL1         0.0993
      13    C4      20.338039   18.739383   21.527414 C.3        1 MOL1        -0.1338
      14    H9      21.426101   18.737846   21.681180 H          1 MOL1         0.0993
      15    H10     20.018514   17.688137   21.509873 H          1 MOL1         0.0993
      16    C5      20.011169   19.399403   20.169217 C.3        1 MOL1        -0.1313
      17    H11     20.331035   20.450852   20.180874 H          1 MOL1         0.0993
      18    H12     18.923763   19.401037   20.009401 H          1 MOL1         0.0993
      19    C6      20.699601   18.668035   18.997022 C.3        1 MOL1        -0.2328
      20    H13     21.791434   18.679662   19.110893 H          1 MOL1         0.1004
      21    H14     20.455631   19.150931   18.041869 H          1 MOL1         0.1004
      22    H15     20.373210   17.621512   18.938174 H          1 MOL1         0.1004
      23    C7      20.948927   19.045662   27.040706 C.3        1 MOL1        -0.0781
      24    H16     21.220481   20.103204   27.067337 H          1 MOL1         0.0978
      25    H17     21.054616   18.612737   28.037952 H          1 MOL1         0.0978
      26    H18     21.595722   18.514179   26.339825 H          1 MOL1         0.0978
@<TRIPOS>BOND
    1     1     2    1
    2     1     3    1
    3     1     4    1
    4     4     5    1
    5     4     6    1
    6     4     7    1
    7     7     8    1
    8     7     9    1
    9     7    10    1
   10    10    11    1
   11    10    12    1
   12    10    13    1
   13    13    14    1
   14    13    15    1
   15    13    16    1
   16    16    17    1
   17    16    18    1
   18    16    19    1
   19    19    20    1
   20    19    21    1
   21    19    22    1
   22     1    23    1
   23    23    24    1
   24    23    25    1
   25    23    26    1
@<TRIPOS>SUBSTRUCTURE
       1 MOL1            1 RESIDUE      1      MOL     
@<SCITEGIC>MOL_PROPERTY
VM2 Rank
SciTegic.value.IntegerValue
3

@<SCITEGIC>MOL_PROPERTY
Conf_Id
SciTegic.value.IntegerValue
37

@<SCITEGIC>MOL_PROPERTY
Probability
SciTegic.value.DoubleValue
4.21

@<SCITEGIC>MOL_PROPERTY
Sum Probability
SciTegic.value.DoubleValue
15.38

@<SCITEGIC>MOL_PROPERTY
Delta G
SciTegic.value.DoubleValue
0.296

@<SCITEGIC>MOL_PROPERTY
G
SciTegic.value.DoubleValue
75.762

@<SCITEGIC>MOL_PROPERTY
E
SciTegic.value.DoubleValue
43.429

@<SCITEGIC>MOL_PROPERTY
-TS
SciTegic.value.DoubleValue
32.333

@<SCITEGIC>MOL_PROPERTY
U+W
SciTegic.value.DoubleValue
21.967

@<SCITEGIC>MOL_PROPERTY
U
SciTegic.value.DoubleValue
70.745

@<SCITEGIC>MOL_PROPERTY
W
SciTegic.value.DoubleValue
-48.778

@<SCITEGIC>MOL_PROPERTY
W(PB)
SciTegic.value.DoubleValue
-51.115

@<SCITEGIC>MOL_PROPERTY
W(SA)
SciTegic.value.DoubleValue
2.337

@<SCITEGIC>MOL_PROPERTY
Valence
SciTegic.value.DoubleValue
1.993

@<SCITEGIC>MOL_PROPERTY
Coulomb
SciTegic.value.DoubleValue
68.323

@<SCITEGIC>MOL_PROPERTY
VdW
SciTegic.value.DoubleValue
0.429

@<SCITEGIC>MOL_PROPERTY
VdW6
SciTegic.value.DoubleValue
-5.973

@<SCITEGIC>MOL_PROPERTY
VdW12
SciTegic.value.DoubleValue
6.403

@<SCITEGIC>MOL_PROPERTY
Bond
SciTegic.value.DoubleValue
0.161

@<SCITEGIC>MOL_PROPERTY
Angle
SciTegic.value.DoubleValue
0.472

@<SCITEGIC>MOL_PROPERTY
Pdih
SciTegic.value.DoubleValue
1.360

@<SCITEGIC>MOL_PROPERTY
Idih
SciTegic.value.DoubleValue
0.000

@<SCITEGIC>MOL_PROPERTY
Tether
SciTegic.value.DoubleValue
0.000

@<TRIPOS>MOLECULE
guest-s12_vm2.mol2 : vm2 ligand conformer 4
          26          25           1
SMALL
USER_CHARGES
 
@<TRIPOS>ATOM
       1    N1      19.327231   19.168104   25.903921 N.4        1 MOL1        -0.4857
       2    H1      18.782776   18.291587   25.902567 H          1 MOL1         0.3650
       3    H2      18.826681   19.805402   25.266375 H          1 MOL1         0.3650
       4    C1      20.730293   18.911522   25.388627 C.3        1 MOL1         0.0209
       5    H3      21.221012   18.234550   26.092565 H          1 MOL1         0.0967
       6    H4      21.271137   19.861201   25.395280 H          1 MOL1         0.0967
       7    C2      20.775504   18.298750   23.974922 C.3        1 MOL1        -0.1378
       8    H5      21.819580   18.057243   23.735085 H          1 MOL1         0.0993
       9    H6      20.225407   17.348312   23.969366 H          1 MOL1         0.0993
      10    C3      20.207673   19.247847   22.892848 C.3        1 MOL1        -0.1338
      11    H7      20.744494   20.206147   22.928709 H          1 MOL1         0.0993
      12    H8      19.152058   19.465886   23.102845 H          1 MOL1         0.0993
      13    C4      20.329261   18.641572   21.476208 C.3        1 MOL1        -0.1338
      14    H9      21.384384   18.426186   21.257474 H          1 MOL1         0.0993
      15    H10     19.795383   17.681773   21.440152 H          1 MOL1         0.0993
      16    C5      19.762276   19.586988   20.393623 C.3        1 MOL1        -0.1313
      17    H11     20.294591   20.548078   20.424316 H          1 MOL1         0.0993
      18    H12     18.705769   19.803266   20.605732 H          1 MOL1         0.0993
      19    C6      19.886152   18.978335   18.980448 C.3        1 MOL1        -0.2328
      20    H13     19.478586   19.663706   18.226006 H          1 MOL1         0.1004
      21    H14     19.334659   18.031837   18.908345 H          1 MOL1         0.1004
      22    H15     20.935824   18.782586   18.725353 H          1 MOL1         0.1004
      23    C7      19.389611   19.756882   27.306403 C.3        1 MOL1        -0.0781
      24    H16     19.942560   20.698314   27.276424 H          1 MOL1         0.0978
      25    H17     18.373664   19.936941   27.664948 H          1 MOL1         0.0978
      26    H18     19.895229   19.051647   27.969680 H          1 MOL1         0.0978
@<TRIPOS>BOND
    1     1     2    1
    2     1     3    1
    3     1     4    1
    4     4     5    1
    5     4     6    1
    6     4     7    1
    7     7     8    1
    8     7     9    1
    9     7    10    1
   10    10    11    1
   11    10    12    1
   12    10    13    1
   13    13    14    1
   14    13    15    1
   15    13    16    1
   16    16    17    1
   17    16    18    1
   18    16    19    1
   19    19    20    1
   20    19    21    1
   21    19    22    1
   22     1    23    1
   23    23    24    1
   24    23    25    1
   25    23    26    1
@<TRIPOS>SUBSTRUCTURE
       1 MOL1            1 RESIDUE      1      MOL     
@<SCITEGIC>MOL_PROPERTY
VM2 Rank
SciTegic.value.IntegerValue
4

@<SCITEGIC>MOL_PROPERTY
Conf_Id
SciTegic.value.IntegerValue
1284

@<SCITEGIC>MOL_PROPERTY
Probability
SciTegic.value.DoubleValue
3.12

@<SCITEGIC>MOL_PROPERTY
Sum Probability
SciTegic.value.DoubleValue
18.50

@<SCITEGIC>MOL_PROPERTY
Delta G
SciTegic.value.DoubleValue
0.475

@<SCITEGIC>MOL_PROPERTY
G
SciTegic.value.DoubleValue
75.941

@<SCITEGIC>MOL_PROPERTY
E
SciTegic.value.DoubleValue
43.686

@<SCITEGIC>MOL_PROPERTY
-TS
SciTegic.value.DoubleValue
32.255

@<SCITEGIC>MOL_PROPERTY
U+W
SciTegic.value.DoubleValue
22.224

@<SCITEGIC>MOL_PROPERTY
U
SciTegic.value.DoubleValue
71.143

@<SCITEGIC>MOL_PROPERTY
W
SciTegic.value.DoubleValue
-48.919

@<SCITEGIC>MOL_PROPERTY
W(PB)
SciTegic.value.DoubleValue
-51.255

@<SCITEGIC>MOL_PROPERTY
W(SA)
SciTegic.value.DoubleValue
2.337

@<SCITEGIC>MOL_PROPERTY
Valence
SciTegic.value.DoubleValue
1.835

@<SCITEGIC>MOL_PROPERTY
Coulomb
SciTegic.value.DoubleValue
69.101

@<SCITEGIC>MOL_PROPERTY
VdW
SciTegic.value.DoubleValue
0.206

@<SCITEGIC>MOL_PROPERTY
VdW6
SciTegic.value.DoubleValue
-5.849

@<SCITEGIC>MOL_PROPERTY
VdW12
SciTegic.value.DoubleValue
6.055

@<SCITEGIC>MOL_PROPERTY
Bond
SciTegic.value.DoubleValue
0.142

@<SCITEGIC>MOL_PROPERTY
Angle
SciTegic.value.DoubleValue
0.413

@<SCITEGIC>MOL_PROPERTY
Pdih
SciTegic.value.DoubleValue
1.279

@<SCITEGIC>MOL_PROPERTY
Idih
SciTegic.value.DoubleValue
0.000

@<SCITEGIC>MOL_PROPERTY
Tether
SciTegic.value.DoubleValue
0.000

@<TRIPOS>MOLECULE
guest-s12_vm2.mol2 : vm2 ligand conformer 5
          26          25           1
SMALL
USER_CHARGES
 
@<TRIPOS>ATOM
       1    N1      20.555910   19.293469   25.947476 N.4        1 MOL1        -0.4857
       2    H1      20.961031   20.023164   25.342013 H          1 MOL1         0.3650
       3    H2      21.264706   18.544824   25.990559 H          1 MOL1         0.3650
       4    C1      19.273069   18.762826   25.336998 C.3        1 MOL1         0.0209
       5    H3      18.552666   19.583815   25.298963 H          1 MOL1         0.0967
       6    H4      18.880912   17.995763   26.009645 H          1 MOL1         0.0967
       7    C2      19.451536   18.163658   23.928010 C.3        1 MOL1        -0.1378
       8    H5      20.180991   17.343732   23.967803 H          1 MOL1         0.0993
       9    H6      18.497033   17.718300   23.617328 H          1 MOL1         0.0993
      10    C3      19.890728   19.215466   22.881629 C.3        1 MOL1        -0.1338
      11    H7      20.863378   19.640300   23.163465 H          1 MOL1         0.0993
      12    H8      19.170594   20.045608   22.873004 H          1 MOL1         0.0993
      13    C4      19.993325   18.607300   21.464294 C.3        1 MOL1        -0.1338
      14    H9      20.710900   17.775099   21.472526 H          1 MOL1         0.0993
      15    H10     19.021233   18.185227   21.173761 H          1 MOL1         0.0993
      16    C5      20.432466   19.655340   20.417373 C.3        1 MOL1        -0.1313
      17    H11     21.406206   20.078598   20.701376 H          1 MOL1         0.0993
      18    H12     19.716542   20.489168   20.403915 H          1 MOL1         0.0993
      19    C6      20.533028   19.044386   19.003338 C.3        1 MOL1        -0.2328
      20    H13     21.267628   18.229000   18.976720 H          1 MOL1         0.1004
      21    H14     20.845883   19.803241   18.274445 H          1 MOL1         0.1004
      22    H15     19.564830   18.642945   18.676778 H          1 MOL1         0.1004
      23    C7      20.277937   19.847554   27.337883 C.3        1 MOL1        -0.0781
      24    H16     19.879772   19.050118   27.969152 H          1 MOL1         0.0978
      25    H17     21.209008   20.226293   27.765422 H          1 MOL1         0.0978
      26    H18     19.549939   20.658281   27.262485 H          1 MOL1         0.0978
@<TRIPOS>BOND
    1     1     2    1
    2     1     3    1
    3     1     4    1
    4     4     5    1
    5     4     6    1
    6     4     7    1
    7     7     8    1
    8     7     9    1
    9     7    10    1
   10    10    11    1
   11    10    12    1
   12    10    13    1
   13    13    14    1
   14    13    15    1
   15    13    16    1
   16    16    17    1
   17    16    18    1
   18    16    19    1
   19    19    20    1
   20    19    21    1
   21    19    22    1
   22     1    23    1
   23    23    24    1
   24    23    25    1
   25    23    26    1
@<TRIPOS>SUBSTRUCTURE
       1 MOL1            1 RESIDUE      1      MOL     
@<SCITEGIC>MOL_PROPERTY
VM2 Rank
SciTegic.value.IntegerValue
5

@<SCITEGIC>MOL_PROPERTY
Conf_Id
SciTegic.value.IntegerValue
484

@<SCITEGIC>MOL_PROPERTY
Probability
SciTegic.value.DoubleValue
3.10

@<SCITEGIC>MOL_PROPERTY
Sum Probability
SciTegic.value.DoubleValue
21.61

@<SCITEGIC>MOL_PROPERTY
Delta G
SciTegic.value.DoubleValue
0.478

@<SCITEGIC>MOL_PROPERTY
G
SciTegic.value.DoubleValue
75.944

@<SCITEGIC>MOL_PROPERTY
E
SciTegic.value.DoubleValue
43.689

@<SCITEGIC>MOL_PROPERTY
-TS
SciTegic.value.DoubleValue
32.255

@<SCITEGIC>MOL_PROPERTY
U+W
SciTegic.value.DoubleValue
22.227

@<SCITEGIC>MOL_PROPERTY
U
SciTegic.value.DoubleValue
71.142

@<SCITEGIC>MOL_PROPERTY
W
SciTegic.value.DoubleValue
-48.916

@<SCITEGIC>MOL_PROPERTY
W(PB)
SciTegic.value.DoubleValue
-51.253

@<SCITEGIC>MOL_PROPERTY
W(SA)
SciTegic.value.DoubleValue
2.337

@<SCITEGIC>MOL_PROPERTY
Valence
SciTegic.value.DoubleValue
1.835

@<SCITEGIC>MOL_PROPERTY
Coulomb
SciTegic.value.DoubleValue
69.101

@<SCITEGIC>MOL_PROPERTY
VdW
SciTegic.value.DoubleValue
0.206

@<SCITEGIC>MOL_PROPERTY
VdW6
SciTegic.value.DoubleValue
-5.849

@<SCITEGIC>MOL_PROPERTY
VdW12
SciTegic.value.DoubleValue
6.055

@<SCITEGIC>MOL_PROPERTY
Bond
SciTegic.value.DoubleValue
0.142

@<SCITEGIC>MOL_PROPERTY
Angle
SciTegic.value.DoubleValue
0.413

@<SCITEGIC>MOL_PROPERTY
Pdih
SciTegic.value.DoubleValue
1.279

@<SCITEGIC>MOL_PROPERTY
Idih
SciTegic.value.DoubleValue
0.000

@<SCITEGIC>MOL_PROPERTY
Tether
SciTegic.value.DoubleValue
0.000

@<TRIPOS>MOLECULE
guest-s12_vm2.mol2 : vm2 ligand conformer 6
          26          25           1
SMALL
USER_CHARGES
 
@<TRIPOS>ATOM
       1    N1      19.927988   18.806456   26.289597 N.4        1 MOL1        -0.4857
       2    H1      20.799366   19.041510   26.789887 H          1 MOL1         0.3650
       3    H2      19.866400   17.776704   26.314685 H          1 MOL1         0.3650
       4    C1      20.001156   19.291278   24.855709 C.3        1 MOL1         0.0209
       5    H3      20.075907   20.381467   24.873688 H          1 MOL1         0.0967
       6    H4      19.064620   19.017840   24.363988 H          1 MOL1         0.0967
       7    C2      21.191802   18.703120   24.074219 C.3        1 MOL1        -0.1378
       8    H5      22.123286   18.947313   24.602076 H          1 MOL1         0.0993
       9    H6      21.117693   17.607581   24.057645 H          1 MOL1         0.0993
      10    C3      21.279957   19.240138   22.626088 C.3        1 MOL1        -0.1338
      11    H7      22.197202   18.852054   22.161826 H          1 MOL1         0.0993
      12    H8      21.381663   20.334172   22.646664 H          1 MOL1         0.0993
      13    C4      20.062554   18.844988   21.755640 C.3        1 MOL1        -0.1338
      14    H9      19.943912   17.752610   21.764298 H          1 MOL1         0.0993
      15    H10     19.142991   19.268276   22.181446 H          1 MOL1         0.0993
      16    C5      20.216456   19.333363   20.297907 C.3        1 MOL1        -0.1313
      17    H11     21.129867   18.908709   19.858207 H          1 MOL1         0.0993
      18    H12     20.336337   20.425800   20.283285 H          1 MOL1         0.0993
      19    C6      19.001114   18.940158   19.431146 C.3        1 MOL1        -0.2328
      20    H13     19.129138   19.294976   18.400253 H          1 MOL1         0.1004
      21    H14     18.075693   19.379499   19.825823 H          1 MOL1         0.1004
      22    H15     18.875273   17.850059   19.398745 H          1 MOL1         0.1004
      23    C7      18.726973   19.430500   26.986693 C.3        1 MOL1        -0.0781
      24    H16     18.830830   20.517733   26.976703 H          1 MOL1         0.0978
      25    H17     17.815222   19.140840   26.459661 H          1 MOL1         0.0978
      26    H18     18.686062   19.073353   28.018157 H          1 MOL1         0.0978
@<TRIPOS>BOND
    1     1     2    1
    2     1     3    1
    3     1     4    1
    4     4     5    1
    5     4     6    1
    6     4     7    1
    7     7     8    1
    8     7     9    1
    9     7    10    1
   10    10    11    1
   11    10    12    1
   12    10    13    1
   13    13    14    1
   14    13    15    1
   15    13    16    1
   16    16    17    1
   17    16    18    1
   18    16    19    1
   19    19    20    1
   20    19    21    1
   21    19    22    1
   22     1    23    1
   23    23    24    1
   24    23    25    1
   25    23    26    1
@<TRIPOS>SUBSTRUCTURE
       1 MOL1            1 RESIDUE      1      MOL     
@<SCITEGIC>MOL_PROPERTY
VM2 Rank
SciTegic.value.IntegerValue
6

@<SCITEGIC>MOL_PROPERTY
Conf_Id
SciTegic.value.IntegerValue
1273

@<SCITEGIC>MOL_PROPERTY
Probability
SciTegic.value.DoubleValue
2.72

@<SCITEGIC>MOL_PROPERTY
Sum Probability
SciTegic.value.DoubleValue
24.33

@<SCITEGIC>MOL_PROPERTY
Delta G
SciTegic.value.DoubleValue
0.556

@<SCITEGIC>MOL_PROPERTY
G
SciTegic.value.DoubleValue
76.022

@<SCITEGIC>MOL_PROPERTY
E
SciTegic.value.DoubleValue
43.762

@<SCITEGIC>MOL_PROPERTY
-TS
SciTegic.value.DoubleValue
32.260

@<SCITEGIC>MOL_PROPERTY
U+W
SciTegic.value.DoubleValue
22.300

@<SCITEGIC>MOL_PROPERTY
U
SciTegic.value.DoubleValue
71.138

@<SCITEGIC>MOL_PROPERTY
W
SciTegic.value.DoubleValue
-48.837

@<SCITEGIC>MOL_PROPERTY
W(PB)
SciTegic.value.DoubleValue
-51.182

@<SCITEGIC>MOL_PROPERTY
W(SA)
SciTegic.value.DoubleValue
2.344

@<SCITEGIC>MOL_PROPERTY
Valence
SciTegic.value.DoubleValue
2.016

@<SCITEGIC>MOL_PROPERTY
Coulomb
SciTegic.value.DoubleValue
68.932

@<SCITEGIC>MOL_PROPERTY
VdW
SciTegic.value.DoubleValue
0.190

@<SCITEGIC>MOL_PROPERTY
VdW6
SciTegic.value.DoubleValue
-5.902

@<SCITEGIC>MOL_PROPERTY
VdW12
SciTegic.value.DoubleValue
6.091

@<SCITEGIC>MOL_PROPERTY
Bond
SciTegic.value.DoubleValue
0.149

@<SCITEGIC>MOL_PROPERTY
Angle
SciTegic.value.DoubleValue
0.477

@<SCITEGIC>MOL_PROPERTY
Pdih
SciTegic.value.DoubleValue
1.390

@<SCITEGIC>MOL_PROPERTY
Idih
SciTegic.value.DoubleValue
0.000

@<SCITEGIC>MOL_PROPERTY
Tether
SciTegic.value.DoubleValue
0.000

@<TRIPOS>MOLECULE
guest-s12_vm2.mol2 : vm2 ligand conformer 7
          26          25           1
SMALL
USER_CHARGES
 
@<TRIPOS>ATOM
       1    N1      20.014980   18.815362   26.292697 N.4        1 MOL1        -0.4857
       2    H1      20.281139   17.819058   26.329452 H          1 MOL1         0.3650
       3    H2      19.081241   18.866229   26.729027 H          1 MOL1         0.3650
       4    C1      19.946132   19.285617   24.853752 C.3        1 MOL1         0.0209
       5    H3      20.950671   19.210245   24.430817 H          1 MOL1         0.0967
       6    H4      19.651907   20.338154   24.858607 H          1 MOL1         0.0967
       7    C2      18.956360   18.474921   23.995023 C.3        1 MOL1        -0.1378
       8    H5      19.250966   17.417014   23.991501 H          1 MOL1         0.0993
       9    H6      17.960130   18.522360   24.454593 H          1 MOL1         0.0993
      10    C3      18.863303   18.993470   22.540481 C.3        1 MOL1        -0.1338
      11    H7      18.541779   20.044313   22.546092 H          1 MOL1         0.0993
      12    H8      18.078028   18.431651   22.015897 H          1 MOL1         0.0993
      13    C4      20.193302   18.858318   21.760267 C.3        1 MOL1        -0.1338
      14    H9      20.976427   19.455362   22.246409 H          1 MOL1         0.0993
      15    H10     20.528995   17.812307   21.784990 H          1 MOL1         0.0993
      16    C5      20.046511   19.316049   20.291896 C.3        1 MOL1        -0.1313
      17    H11     19.710026   20.361915   20.261138 H          1 MOL1         0.0993
      18    H12     19.270636   18.719021   19.792335 H          1 MOL1         0.0993
      19    C6      21.373847   19.182348   19.515206 C.3        1 MOL1        -0.2328
      20    H13     21.249394   19.511440   18.475380 H          1 MOL1         0.1004
      21    H14     21.718971   18.140310   19.499452 H          1 MOL1         0.1004
      22    H15     22.161645   19.796504   19.970597 H          1 MOL1         0.1004
      23    C7      21.013565   19.663916   27.067678 C.3        1 MOL1        -0.0781
      24    H16     20.693475   20.707887   27.042592 H          1 MOL1         0.0978
      25    H17     21.053327   19.315076   28.102025 H          1 MOL1         0.0978
      26    H18     21.999638   19.567887   26.607902 H          1 MOL1         0.0978
@<TRIPOS>BOND
    1     1     2    1
    2     1     3    1
    3     1     4    1
    4     4     5    1
    5     4     6    1
    6     4     7    1
    7     7     8    1
    8     7     9    1
    9     7    10    1
   10    10    11    1
   11    10    12    1
   12    10    13    1
   13    13    14    1
   14    13    15    1
   15    13    16    1
   16    16    17    1
   17    16    18    1
   18    16    19    1
   19    19    20    1
   20    19    21    1
   21    19    22    1
   22     1    23    1
   23    23    24    1
   24    23    25    1
   25    23    26    1
@<TRIPOS>SUBSTRUCTURE
       1 MOL1            1 RESIDUE      1      MOL     
@<SCITEGIC>MOL_PROPERTY
VM2 Rank
SciTegic.value.IntegerValue
7

@<SCITEGIC>MOL_PROPERTY
Conf_Id
SciTegic.value.IntegerValue
934

@<SCITEGIC>MOL_PROPERTY
Probability
SciTegic.value.DoubleValue
2.56

@<SCITEGIC>MOL_PROPERTY
Sum Probability
SciTegic.value.DoubleValue
26.89

@<SCITEGIC>MOL_PROPERTY
Delta G
SciTegic.value.DoubleValue
0.592

@<SCITEGIC>MOL_PROPERTY
G
SciTegic.value.DoubleValue
76.058

@<SCITEGIC>MOL_PROPERTY
E
SciTegic.value.DoubleValue
43.798

@<SCITEGIC>MOL_PROPERTY
-TS
SciTegic.value.DoubleValue
32.260

@<SCITEGIC>MOL_PROPERTY
U+W
SciTegic.value.DoubleValue
22.336

@<SCITEGIC>MOL_PROPERTY
U
SciTegic.value.DoubleValue
71.138

@<SCITEGIC>MOL_PROPERTY
W
SciTegic.value.DoubleValue
-48.802

@<SCITEGIC>MOL_PROPERTY
W(PB)
SciTegic.value.DoubleValue
-51.136

@<SCITEGIC>MOL_PROPERTY
W(SA)
SciTegic.value.DoubleValue
2.335

@<SCITEGIC>MOL_PROPERTY
Valence
SciTegic.value.DoubleValue
2.016

@<SCITEGIC>MOL_PROPERTY
Coulomb
SciTegic.value.DoubleValue
68.932

@<SCITEGIC>MOL_PROPERTY
VdW
SciTegic.value.DoubleValue
0.190

@<SCITEGIC>MOL_PROPERTY
VdW6
SciTegic.value.DoubleValue
-5.902

@<SCITEGIC>MOL_PROPERTY
VdW12
SciTegic.value.DoubleValue
6.091

@<SCITEGIC>MOL_PROPERTY
Bond
SciTegic.value.DoubleValue
0.149

@<SCITEGIC>MOL_PROPERTY
Angle
SciTegic.value.DoubleValue
0.477

@<SCITEGIC>MOL_PROPERTY
Pdih
SciTegic.value.DoubleValue
1.390

@<SCITEGIC>MOL_PROPERTY
Idih
SciTegic.value.DoubleValue
0.000

@<SCITEGIC>MOL_PROPERTY
Tether
SciTegic.value.DoubleValue
0.000

@<TRIPOS>MOLECULE
guest-s12_vm2.mol2 : vm2 ligand conformer 8
          26          25           1
SMALL
USER_CHARGES
 
@<TRIPOS>ATOM
       1    N1      19.590316   19.766153   26.020351 N.4        1 MOL1        -0.4857
       2    H1      18.970570   19.996629   26.813248 H          1 MOL1         0.3650
       3    H2      19.449602   20.528221   25.340511 H          1 MOL1         0.3650
       4    C1      19.166210   18.438148   25.412443 C.3        1 MOL1         0.0209
       5    H3      18.090082   18.492291   25.229037 H          1 MOL1         0.0967
       6    H4      19.340458   17.661357   26.161267 H          1 MOL1         0.0967
       7    C2      19.880451   18.056523   24.097287 C.3        1 MOL1        -0.1378
       8    H5      20.956892   17.940679   24.278186 H          1 MOL1         0.0993
       9    H6      19.513440   17.071802   23.778967 H          1 MOL1         0.0993
      10    C3      19.640963   19.083207   22.964939 C.3        1 MOL1        -0.1338
      11    H7      20.043397   20.061917   23.258705 H          1 MOL1         0.0993
      12    H8      18.560694   19.214326   22.811730 H          1 MOL1         0.0993
      13    C4      20.300399   18.640212   21.639057 C.3        1 MOL1        -0.1338
      14    H9      21.380133   18.505770   21.792764 H          1 MOL1         0.0993
      15    H10     19.898715   17.663082   21.336805 H          1 MOL1         0.0993
      16    C5      20.065268   19.665447   20.507331 C.3        1 MOL1        -0.1313
      17    H11     20.468202   20.644225   20.803323 H          1 MOL1         0.0993
      18    H12     18.986339   19.802067   20.348475 H          1 MOL1         0.0993
      19    C6      20.724800   19.219359   19.184880 C.3        1 MOL1        -0.2328
      20    H13     21.810445   19.107172   19.303151 H          1 MOL1         0.1004
      21    H14     20.547060   19.959561   18.393976 H          1 MOL1         0.1004
      22    H15     20.316970   18.258594   18.844577 H          1 MOL1         0.1004
      23    C7      21.039592   19.720951   26.490712 C.3        1 MOL1        -0.0781
      24    H16     21.154664   18.917320   27.221277 H          1 MOL1         0.0978
      25    H17     21.691703   19.539691   25.633932 H          1 MOL1         0.0978
      26    H18     21.295817   20.677623   26.951333 H          1 MOL1         0.0978
@<TRIPOS>BOND
    1     1     2    1
    2     1     3    1
    3     1     4    1
    4     4     5    1
    5     4     6    1
    6     4     7    1
    7     7     8    1
    8     7     9    1
    9     7    10    1
   10    10    11    1
   11    10    12    1
   12    10    13    1
   13    13    14    1
   14    13    15    1
   15    13    16    1
   16    16    17    1
   17    16    18    1
   18    16    19    1
   19    19    20    1
   20    19    21    1
   21    19    22    1
   22     1    23    1
   23    23    24    1
   24    23    25    1
   25    23    26    1
@<TRIPOS>SUBSTRUCTURE
       1 MOL1            1 RESIDUE      1      MOL     
@<SCITEGIC>MOL_PROPERTY
VM2 Rank
SciTegic.value.IntegerValue
8

@<SCITEGIC>MOL_PROPERTY
Conf_Id
SciTegic.value.IntegerValue
1544

@<SCITEGIC>MOL_PROPERTY
Probability
SciTegic.value.DoubleValue
2.55

@<SCITEGIC>MOL_PROPERTY
Sum Probability
SciTegic.value.DoubleValue
29.44

@<SCITEGIC>MOL_PROPERTY
Delta G
SciTegic.value.DoubleValue
0.595

@<SCITEGIC>MOL_PROPERTY
G
SciTegic.value.DoubleValue
76.061

@<SCITEGIC>MOL_PROPERTY
E
SciTegic.value.DoubleValue
43.581

@<SCITEGIC>MOL_PROPERTY
-TS
SciTegic.value.DoubleValue
32.479

@<SCITEGIC>MOL_PROPERTY
U+W
SciTegic.value.DoubleValue
22.120

@<SCITEGIC>MOL_PROPERTY
U
SciTegic.value.DoubleValue
71.480

@<SCITEGIC>MOL_PROPERTY
W
SciTegic.value.DoubleValue
-49.360

@<SCITEGIC>MOL_PROPERTY
W(PB)
SciTegic.value.DoubleValue
-51.654

@<SCITEGIC>MOL_PROPERTY
W(SA)
SciTegic.value.DoubleValue
2.294

@<SCITEGIC>MOL_PROPERTY
Valence
SciTegic.value.DoubleValue
2.084

@<SCITEGIC>MOL_PROPERTY
Coulomb
SciTegic.value.DoubleValue
68.999

@<SCITEGIC>MOL_PROPERTY
VdW
SciTegic.value.DoubleValue
0.396

@<SCITEGIC>MOL_PROPERTY
VdW6
SciTegic.value.DoubleValue
-6.753

@<SCITEGIC>MOL_PROPERTY
VdW12
SciTegic.value.DoubleValue
7.148

@<SCITEGIC>MOL_PROPERTY
Bond
SciTegic.value.DoubleValue
0.184

@<SCITEGIC>MOL_PROPERTY
Angle
SciTegic.value.DoubleValue
0.576

@<SCITEGIC>MOL_PROPERTY
Pdih
SciTegic.value.DoubleValue
1.325

@<SCITEGIC>MOL_PROPERTY
Idih
SciTegic.value.DoubleValue
0.000

@<SCITEGIC>MOL_PROPERTY
Tether
SciTegic.value.DoubleValue
0.000

@<TRIPOS>MOLECULE
guest-s12_vm2.mol2 : vm2 ligand conformer 9
          26          25           1
SMALL
USER_CHARGES
 
@<TRIPOS>ATOM
       1    N1      19.927928   18.743550   26.413472 N.4        1 MOL1        -0.4857
       2    H1      20.550161   17.921983   26.465552 H          1 MOL1         0.3650
       3    H2      18.971505   18.370500   26.518136 H          1 MOL1         0.3650
       4    C1      20.077835   19.428763   25.070036 C.3        1 MOL1         0.0209
       5    H3      21.102797   19.800872   24.996003 H          1 MOL1         0.0967
       6    H4      19.398588   20.284813   25.052644 H          1 MOL1         0.0967
       7    C2      19.775361   18.503282   23.877537 C.3        1 MOL1        -0.1378
       8    H5      20.448984   17.636461   23.907964 H          1 MOL1         0.0993
       9    H6      18.750446   18.118698   23.965172 H          1 MOL1         0.0993
      10    C3      19.940927   19.243254   22.531572 C.3        1 MOL1        -0.1338
      11    H7      20.965052   19.632934   22.460275 H          1 MOL1         0.0993
      12    H8      19.266849   20.110721   22.505403 H          1 MOL1         0.0993
      13    C4      19.642488   18.319194   21.326194 C.3        1 MOL1        -0.1338
      14    H9      20.348674   17.477396   21.320313 H          1 MOL1         0.0993
      15    H10     18.641898   17.881749   21.448218 H          1 MOL1         0.0993
      16    C5      19.696369   19.048023   19.961512 C.3        1 MOL1        -0.1313
      17    H11     18.975208   19.877298   19.954118 H          1 MOL1         0.0993
      18    H12     19.370528   18.351108   19.176640 H          1 MOL1         0.0993
      19    C6      21.103064   19.579138   19.602880 C.3        1 MOL1        -0.2328
      20    H13     21.423748   20.370017   20.292126 H          1 MOL1         0.1004
      21    H14     21.106784   20.003332   18.590468 H          1 MOL1         0.1004
      22    H15     21.848605   18.773943   19.631667 H          1 MOL1         0.1004
      23    C7      20.244029   19.724796   27.533796 C.3        1 MOL1        -0.0781
      24    H16     19.552314   20.568251   27.478307 H          1 MOL1         0.0978
      25    H17     20.132261   19.218745   28.495341 H          1 MOL1         0.0978
      26    H18     21.270717   20.080004   27.421092 H          1 MOL1         0.0978
@<TRIPOS>BOND
    1     1     2    1
    2     1     3    1
    3     1     4    1
    4     4     5    1
    5     4     6    1
    6     4     7    1
    7     7     8    1
    8     7     9    1
    9     7    10    1
   10    10    11    1
   11    10    12    1
   12    10    13    1
   13    13    14    1
   14    13    15    1
   15    13    16    1
   16    16    17    1
   17    16    18    1
   18    16    19    1
   19    19    20    1
   20    19    21    1
   21    19    22    1
   22     1    23    1
   23    23    24    1
   24    23    25    1
   25    23    26    1
@<TRIPOS>SUBSTRUCTURE
       1 MOL1            1 RESIDUE      1      MOL     
@<SCITEGIC>MOL_PROPERTY
VM2 Rank
SciTegic.value.IntegerValue
9

@<SCITEGIC>MOL_PROPERTY
Conf_Id
SciTegic.value.IntegerValue
1256

@<SCITEGIC>MOL_PROPERTY
Probability
SciTegic.value.DoubleValue
2.23

@<SCITEGIC>MOL_PROPERTY
Sum Probability
SciTegic.value.DoubleValue
31.67

@<SCITEGIC>MOL_PROPERTY
Delta G
SciTegic.value.DoubleValue
0.676

@<SCITEGIC>MOL_PROPERTY
G
SciTegic.value.DoubleValue
76.142

@<SCITEGIC>MOL_PROPERTY
E
SciTegic.value.DoubleValue
43.870

@<SCITEGIC>MOL_PROPERTY
-TS
SciTegic.value.DoubleValue
32.272

@<SCITEGIC>MOL_PROPERTY
U+W
SciTegic.value.DoubleValue
22.408

@<SCITEGIC>MOL_PROPERTY
U
SciTegic.value.DoubleValue
71.035

@<SCITEGIC>MOL_PROPERTY
W
SciTegic.value.DoubleValue
-48.627

@<SCITEGIC>MOL_PROPERTY
W(PB)
SciTegic.value.DoubleValue
-50.936

@<SCITEGIC>MOL_PROPERTY
W(SA)
SciTegic.value.DoubleValue
2.309

@<SCITEGIC>MOL_PROPERTY
Valence
SciTegic.value.DoubleValue
2.223

@<SCITEGIC>MOL_PROPERTY
Coulomb
SciTegic.value.DoubleValue
68.516

@<SCITEGIC>MOL_PROPERTY
VdW
SciTegic.value.DoubleValue
0.296

@<SCITEGIC>MOL_PROPERTY
VdW6
SciTegic.value.DoubleValue
-5.881

@<SCITEGIC>MOL_PROPERTY
VdW12
SciTegic.value.DoubleValue
6.178

@<SCITEGIC>MOL_PROPERTY
Bond
SciTegic.value.DoubleValue
0.162

@<SCITEGIC>MOL_PROPERTY
Angle
SciTegic.value.DoubleValue
0.596

@<SCITEGIC>MOL_PROPERTY
Pdih
SciTegic.value.DoubleValue
1.465

@<SCITEGIC>MOL_PROPERTY
Idih
SciTegic.value.DoubleValue
0.000

@<SCITEGIC>MOL_PROPERTY
Tether
SciTegic.value.DoubleValue
0.000

@<TRIPOS>MOLECULE
guest-s12_vm2.mol2 : vm2 ligand conformer 10
          26          25           1
SMALL
USER_CHARGES
 
@<TRIPOS>ATOM
       1    N1      20.019123   18.752929   26.416715 N.4        1 MOL1        -0.4857
       2    H1      21.021424   18.579782   26.590724 H          1 MOL1         0.3650
       3    H2      19.573337   17.822375   26.431090 H          1 MOL1         0.3650
       4    C1      19.828438   19.403265   25.061169 C.3        1 MOL1         0.0209
       5    H3      20.320548   20.378843   25.085155 H          1 MOL1         0.0967
       6    H4      18.757226   19.561468   24.912939 H          1 MOL1         0.0967
       7    C2      20.394061   18.566280   23.899454 C.3        1 MOL1        -0.1378
       8    H5      21.466760   18.395632   24.061404 H          1 MOL1         0.0993
       9    H6      19.908601   17.581248   23.888848 H          1 MOL1         0.0993
      10    C3      20.177381   19.267239   22.539933 C.3        1 MOL1        -0.1338
      11    H7      20.662874   20.252957   22.554809 H          1 MOL1         0.0993
      12    H8      19.103281   19.442939   22.394312 H          1 MOL1         0.0993
      13    C4      20.739632   18.430911   21.365065 C.3        1 MOL1        -0.1338
      14    H9      21.796778   18.203184   21.560039 H          1 MOL1         0.0993
      15    H10     20.219723   17.464156   21.315722 H          1 MOL1         0.0993
      16    C5      20.635793   19.143653   19.994784 C.3        1 MOL1        -0.1313
      17    H11     21.149296   18.532144   19.239629 H          1 MOL1         0.0993
      18    H12     21.174046   20.101112   20.031926 H          1 MOL1         0.0993
      19    C6      19.179606   19.383386   19.534850 C.3        1 MOL1        -0.2328
      20    H13     19.161430   19.805189   18.521595 H          1 MOL1         0.1004
      21    H14     18.658993   20.088774   20.194225 H          1 MOL1         0.1004
      22    H15     18.611133   18.444488   19.517319 H          1 MOL1         0.1004
      23    C7      19.433967   19.642338   27.505029 C.3        1 MOL1        -0.0781
      24    H16     19.943433   20.608381   27.491903 H          1 MOL1         0.0978
      25    H17     18.367178   19.783870   27.318227 H          1 MOL1         0.0978
      26    H18     19.577995   19.162530   28.475693 H          1 MOL1         0.0978
@<TRIPOS>BOND
    1     1     2    1
    2     1     3    1
    3     1     4    1
    4     4     5    1
    5     4     6    1
    6     4     7    1
    7     7     8    1
    8     7     9    1
    9     7    10    1
   10    10    11    1
   11    10    12    1
   12    10    13    1
   13    13    14    1
   14    13    15    1
   15    13    16    1
   16    16    17    1
   17    16    18    1
   18    16    19    1
   19    19    20    1
   20    19    21    1
   21    19    22    1
   22     1    23    1
   23    23    24    1
   24    23    25    1
   25    23    26    1
@<TRIPOS>SUBSTRUCTURE
       1 MOL1            1 RESIDUE      1      MOL     
@<SCITEGIC>MOL_PROPERTY
VM2 Rank
SciTegic.value.IntegerValue
10

@<SCITEGIC>MOL_PROPERTY
Conf_Id
SciTegic.value.IntegerValue
760

@<SCITEGIC>MOL_PROPERTY
Probability
SciTegic.value.DoubleValue
2.19

@<SCITEGIC>MOL_PROPERTY
Sum Probability
SciTegic.value.DoubleValue
33.86

@<SCITEGIC>MOL_PROPERTY
Delta G
SciTegic.value.DoubleValue
0.686

@<SCITEGIC>MOL_PROPERTY
G
SciTegic.value.DoubleValue
76.152

@<SCITEGIC>MOL_PROPERTY
E
SciTegic.value.DoubleValue
43.880

@<SCITEGIC>MOL_PROPERTY
-TS
SciTegic.value.DoubleValue
32.272

@<SCITEGIC>MOL_PROPERTY
U+W
SciTegic.value.DoubleValue
22.418

@<SCITEGIC>MOL_PROPERTY
U
SciTegic.value.DoubleValue
71.035

@<SCITEGIC>MOL_PROPERTY
W
SciTegic.value.DoubleValue
-48.617

@<SCITEGIC>MOL_PROPERTY
W(PB)
SciTegic.value.DoubleValue
-50.942

@<SCITEGIC>MOL_PROPERTY
W(SA)
SciTegic.value.DoubleValue
2.325

@<SCITEGIC>MOL_PROPERTY
Valence
SciTegic.value.DoubleValue
2.223

@<SCITEGIC>MOL_PROPERTY
Coulomb
SciTegic.value.DoubleValue
68.516

@<SCITEGIC>MOL_PROPERTY
VdW
SciTegic.value.DoubleValue
0.297

@<SCITEGIC>MOL_PROPERTY
VdW6
SciTegic.value.DoubleValue
-5.882

@<SCITEGIC>MOL_PROPERTY
VdW12
SciTegic.value.DoubleValue
6.178

@<SCITEGIC>MOL_PROPERTY
Bond
SciTegic.value.DoubleValue
0.162

@<SCITEGIC>MOL_PROPERTY
Angle
SciTegic.value.DoubleValue
0.596

@<SCITEGIC>MOL_PROPERTY
Pdih
SciTegic.value.DoubleValue
1.465

@<SCITEGIC>MOL_PROPERTY
Idih
SciTegic.value.DoubleValue
0.000

@<SCITEGIC>MOL_PROPERTY
Tether
SciTegic.value.DoubleValue
0.000

@<TRIPOS>MOLECULE
guest-s12_vm2.mol2 : vm2 ligand conformer 11
          26          25           1
SMALL
USER_CHARGES
 
@<TRIPOS>ATOM
       1    N1      19.494306   18.771888   26.321674 N.4        1 MOL1        -0.4857
       2    H1      18.897113   18.018108   26.697300 H          1 MOL1         0.3650
       3    H2      19.144284   19.634898   26.765695 H          1 MOL1         0.3650
       4    C1      19.325563   18.851096   24.813736 C.3        1 MOL1         0.0209
       5    H3      18.252418   18.863602   24.606843 H          1 MOL1         0.0967
       6    H4      19.744045   17.938669   24.382450 H          1 MOL1         0.0967
       7    C2      19.976043   20.089653   24.161379 C.3        1 MOL1        -0.1378
       8    H5      19.596674   20.994595   24.654064 H          1 MOL1         0.0993
       9    H6      21.061240   20.074100   24.325520 H          1 MOL1         0.0993
      10    C3      19.686760   20.184494   22.644727 C.3        1 MOL1        -0.1338
      11    H7      20.097746   21.130652   22.266138 H          1 MOL1         0.0993
      12    H8      18.601090   20.230113   22.480798 H          1 MOL1         0.0993
      13    C4      20.288321   19.008850   21.837410 C.3        1 MOL1        -0.1338
      14    H9      21.368466   18.946345   22.029301 H          1 MOL1         0.0993
      15    H10     19.850253   18.059490   22.173423 H          1 MOL1         0.0993
      16    C5      20.044531   19.169970   20.320260 C.3        1 MOL1        -0.1313
      17    H11     20.486625   20.113670   19.971025 H          1 MOL1         0.0993
      18    H12     18.965240   19.233693   20.122598 H          1 MOL1         0.0993
      19    C6      20.643721   17.996217   19.516391 C.3        1 MOL1        -0.2328
      20    H13     21.728951   17.927511   19.667234 H          1 MOL1         0.1004
      21    H14     20.460949   18.128807   18.442128 H          1 MOL1         0.1004
      22    H15     20.195431   17.040780   19.818663 H          1 MOL1         0.1004
      23    C7      20.948756   18.517831   26.701422 C.3        1 MOL1        -0.0781
      24    H16     21.284948   17.590044   26.233431 H          1 MOL1         0.0978
      25    H17     21.563720   19.351349   26.356278 H          1 MOL1         0.0978
      26    H18     21.024337   18.431273   27.787647 H          1 MOL1         0.0978
@<TRIPOS>BOND
    1     1     2    1
    2     1     3    1
    3     1     4    1
    4     4     5    1
    5     4     6    1
    6     4     7    1
    7     7     8    1
    8     7     9    1
    9     7    10    1
   10    10    11    1
   11    10    12    1
   12    10    13    1
   13    13    14    1
   14    13    15    1
   15    13    16    1
   16    16    17    1
   17    16    18    1
   18    16    19    1
   19    19    20    1
   20    19    21    1
   21    19    22    1
   22     1    23    1
   23    23    24    1
   24    23    25    1
   25    23    26    1
@<TRIPOS>SUBSTRUCTURE
       1 MOL1            1 RESIDUE      1      MOL     
@<SCITEGIC>MOL_PROPERTY
VM2 Rank
SciTegic.value.IntegerValue
11

@<SCITEGIC>MOL_PROPERTY
Conf_Id
SciTegic.value.IntegerValue
1096

@<SCITEGIC>MOL_PROPERTY
Probability
SciTegic.value.DoubleValue
2.00

@<SCITEGIC>MOL_PROPERTY
Sum Probability
SciTegic.value.DoubleValue
35.85

@<SCITEGIC>MOL_PROPERTY
Delta G
SciTegic.value.DoubleValue
0.741

@<SCITEGIC>MOL_PROPERTY
G
SciTegic.value.DoubleValue
76.207

@<SCITEGIC>MOL_PROPERTY
E
SciTegic.value.DoubleValue
43.781

@<SCITEGIC>MOL_PROPERTY
-TS
SciTegic.value.DoubleValue
32.426

@<SCITEGIC>MOL_PROPERTY
U+W
SciTegic.value.DoubleValue
22.319

@<SCITEGIC>MOL_PROPERTY
U
SciTegic.value.DoubleValue
71.511

@<SCITEGIC>MOL_PROPERTY
W
SciTegic.value.DoubleValue
-49.193

@<SCITEGIC>MOL_PROPERTY
W(PB)
SciTegic.value.DoubleValue
-51.484

@<SCITEGIC>MOL_PROPERTY
W(SA)
SciTegic.value.DoubleValue
2.291

@<SCITEGIC>MOL_PROPERTY
Valence
SciTegic.value.DoubleValue
2.291

@<SCITEGIC>MOL_PROPERTY
Coulomb
SciTegic.value.DoubleValue
68.784

@<SCITEGIC>MOL_PROPERTY
VdW
SciTegic.value.DoubleValue
0.437

@<SCITEGIC>MOL_PROPERTY
VdW6
SciTegic.value.DoubleValue
-6.615

@<SCITEGIC>MOL_PROPERTY
VdW12
SciTegic.value.DoubleValue
7.052

@<SCITEGIC>MOL_PROPERTY
Bond
SciTegic.value.DoubleValue
0.185

@<SCITEGIC>MOL_PROPERTY
Angle
SciTegic.value.DoubleValue
0.586

@<SCITEGIC>MOL_PROPERTY
Pdih
SciTegic.value.DoubleValue
1.520

@<SCITEGIC>MOL_PROPERTY
Idih
SciTegic.value.DoubleValue
0.000

@<SCITEGIC>MOL_PROPERTY
Tether
SciTegic.value.DoubleValue
0.000

@<TRIPOS>MOLECULE
guest-s12_vm2.mol2 : vm2 ligand conformer 12
          26          25           1
SMALL
USER_CHARGES
 
@<TRIPOS>ATOM
       1    N1      20.444479   18.871354   26.355321 N.4        1 MOL1        -0.4857
       2    H1      20.576351   19.784819   26.816457 H          1 MOL1         0.3650
       3    H2      21.156861   18.254693   26.777413 H          1 MOL1         0.3650
       4    C1      20.698476   18.994851   24.862387 C.3        1 MOL1         0.0209
       5    H3      20.508972   18.018817   24.409504 H          1 MOL1         0.0967
       6    H4      21.757647   19.230497   24.731134 H          1 MOL1         0.0967
       7    C2      19.853311   20.076921   24.157026 C.3        1 MOL1        -0.1378
       8    H5      18.785998   19.836203   24.244954 H          1 MOL1         0.0993
       9    H6      20.002017   21.037125   24.668373 H          1 MOL1         0.0993
      10    C3      20.222121   20.240528   22.663668 C.3        1 MOL1        -0.1338
      11    H7      21.283687   20.510675   22.575732 H          1 MOL1         0.0993
      12    H8      19.652015   21.084078   22.250319 H          1 MOL1         0.0993
      13    C4      19.934411   18.971855   21.824939 C.3        1 MOL1        -0.1338
      14    H9      20.534592   18.131083   22.197735 H          1 MOL1         0.0993
      15    H10     18.879773   18.686124   21.941296 H          1 MOL1         0.0993
      16    C5      20.245137   19.190875   20.327406 C.3        1 MOL1        -0.1313
      17    H11     21.299124   19.477548   20.205227 H          1 MOL1         0.0993
      18    H12     19.643212   20.025445   19.941191 H          1 MOL1         0.0993
      19    C6      19.958967   17.924543   19.492275 C.3        1 MOL1        -0.2328
      20    H13     20.185107   18.099794   18.432476 H          1 MOL1         0.1004
      21    H14     18.903478   17.632127   19.567359 H          1 MOL1         0.1004
      22    H15     20.572621   17.080107   19.832200 H          1 MOL1         0.1004
      23    C7      19.051099   18.319072   26.633978 C.3        1 MOL1        -0.0781
      24    H16     18.302733   19.009832   26.240462 H          1 MOL1         0.0978
      25    H17     18.947816   17.345276   26.150360 H          1 MOL1         0.0978
      26    H18     18.919078   18.210743   27.712831 H          1 MOL1         0.0978
@<TRIPOS>BOND
    1     1     2    1
    2     1     3    1
    3     1     4    1
    4     4     5    1
    5     4     6    1
    6     4     7    1
    7     7     8    1
    8     7     9    1
    9     7    10    1
   10    10    11    1
   11    10    12    1
   12    10    13    1
   13    13    14    1
   14    13    15    1
   15    13    16    1
   16    16    17    1
   17    16    18    1
   18    16    19    1
   19    19    20    1
   20    19    21    1
   21    19    22    1
   22     1    23    1
   23    23    24    1
   24    23    25    1
   25    23    26    1
@<TRIPOS>SUBSTRUCTURE
       1 MOL1            1 RESIDUE      1      MOL     
@<SCITEGIC>MOL_PROPERTY
VM2 Rank
SciTegic.value.IntegerValue
12

@<SCITEGIC>MOL_PROPERTY
Conf_Id
SciTegic.value.IntegerValue
813

@<SCITEGIC>MOL_PROPERTY
Probability
SciTegic.value.DoubleValue
1.99

@<SCITEGIC>MOL_PROPERTY
Sum Probability
SciTegic.value.DoubleValue
37.85

@<SCITEGIC>MOL_PROPERTY
Delta G
SciTegic.value.DoubleValue
0.742

@<SCITEGIC>MOL_PROPERTY
G
SciTegic.value.DoubleValue
76.208

@<SCITEGIC>MOL_PROPERTY
E
SciTegic.value.DoubleValue
43.782

@<SCITEGIC>MOL_PROPERTY
-TS
SciTegic.value.DoubleValue
32.426

@<SCITEGIC>MOL_PROPERTY
U+W
SciTegic.value.DoubleValue
22.320

@<SCITEGIC>MOL_PROPERTY
U
SciTegic.value.DoubleValue
71.511

@<SCITEGIC>MOL_PROPERTY
W
SciTegic.value.DoubleValue
-49.191

@<SCITEGIC>MOL_PROPERTY
W(PB)
SciTegic.value.DoubleValue
-51.480

@<SCITEGIC>MOL_PROPERTY
W(SA)
SciTegic.value.DoubleValue
2.288

@<SCITEGIC>MOL_PROPERTY
Valence
SciTegic.value.DoubleValue
2.291

@<SCITEGIC>MOL_PROPERTY
Coulomb
SciTegic.value.DoubleValue
68.784

@<SCITEGIC>MOL_PROPERTY
VdW
SciTegic.value.DoubleValue
0.437

@<SCITEGIC>MOL_PROPERTY
VdW6
SciTegic.value.DoubleValue
-6.615

@<SCITEGIC>MOL_PROPERTY
VdW12
SciTegic.value.DoubleValue
7.052

@<SCITEGIC>MOL_PROPERTY
Bond
SciTegic.value.DoubleValue
0.185

@<SCITEGIC>MOL_PROPERTY
Angle
SciTegic.value.DoubleValue
0.586

@<SCITEGIC>MOL_PROPERTY
Pdih
SciTegic.value.DoubleValue
1.520

@<SCITEGIC>MOL_PROPERTY
Idih
SciTegic.value.DoubleValue
0.000

@<SCITEGIC>MOL_PROPERTY
Tether
SciTegic.value.DoubleValue
0.000

@<TRIPOS>MOLECULE
guest-s12_vm2.mol2 : vm2 ligand conformer 13
          26          25           1
SMALL
USER_CHARGES
 
@<TRIPOS>ATOM
       1    N1      19.553654   18.550746   26.183665 N.4        1 MOL1        -0.4857
       2    H1      20.071102   17.658241   26.206821 H          1 MOL1         0.3650
       3    H2      18.585868   18.300500   25.927595 H          1 MOL1         0.3650
       4    C1      20.149243   19.473546   25.139326 C.3        1 MOL1         0.0209
       5    H3      21.172824   19.706989   25.443094 H          1 MOL1         0.0967
       6    H4      19.569755   20.400201   25.141016 H          1 MOL1         0.0967
       7    C2      20.154263   18.868546   23.723691 C.3        1 MOL1        -0.1378
       8    H5      20.723815   17.929694   23.730493 H          1 MOL1         0.0993
       9    H6      19.124270   18.621144   23.437750 H          1 MOL1         0.0993
      10    C3      20.772961   19.845749   22.696317 C.3        1 MOL1        -0.1338
      11    H7      21.771696   20.143971   23.044692 H          1 MOL1         0.0993
      12    H8      20.174519   20.766434   22.653521 H          1 MOL1         0.0993
      13    C4      20.907698   19.247636   21.274061 C.3        1 MOL1        -0.1338
      14    H9      21.458856   19.962134   20.647031 H          1 MOL1         0.0993
      15    H10     21.520977   18.336785   21.313870 H          1 MOL1         0.0993
      16    C5      19.549743   18.933328   20.602263 C.3        1 MOL1        -0.1313
      17    H11     18.915709   19.830966   20.608670 H          1 MOL1         0.0993
      18    H12     19.014534   18.161238   21.170726 H          1 MOL1         0.0993
      19    C6      19.732703   18.447200   19.148565 C.3        1 MOL1        -0.2328
      20    H13     20.338593   17.532466   19.111610 H          1 MOL1         0.1004
      21    H14     20.229003   19.210929   18.535703 H          1 MOL1         0.1004
      22    H15     18.760871   18.226174   18.688441 H          1 MOL1         0.1004
      23    C7      19.587734   19.223248   27.549112 C.3        1 MOL1        -0.0781
      24    H16     19.006921   20.147373   27.508932 H          1 MOL1         0.0978
      25    H17     19.156194   18.548348   28.291695 H          1 MOL1         0.0978
      26    H18     20.623480   19.448186   27.812926 H          1 MOL1         0.0978
@<TRIPOS>BOND
    1     1     2    1
    2     1     3    1
    3     1     4    1
    4     4     5    1
    5     4     6    1
    6     4     7    1
    7     7     8    1
    8     7     9    1
    9     7    10    1
   10    10    11    1
   11    10    12    1
   12    10    13    1
   13    13    14    1
   14    13    15    1
   15    13    16    1
   16    16    17    1
   17    16    18    1
   18    16    19    1
   19    19    20    1
   20    19    21    1
   21    19    22    1
   22     1    23    1
   23    23    24    1
   24    23    25    1
   25    23    26    1
@<TRIPOS>SUBSTRUCTURE
       1 MOL1            1 RESIDUE      1      MOL     
@<SCITEGIC>MOL_PROPERTY
VM2 Rank
SciTegic.value.IntegerValue
13

@<SCITEGIC>MOL_PROPERTY
Conf_Id
SciTegic.value.IntegerValue
975

@<SCITEGIC>MOL_PROPERTY
Probability
SciTegic.value.DoubleValue
1.94

@<SCITEGIC>MOL_PROPERTY
Sum Probability
SciTegic.value.DoubleValue
39.78

@<SCITEGIC>MOL_PROPERTY
Delta G
SciTegic.value.DoubleValue
0.759

@<SCITEGIC>MOL_PROPERTY
G
SciTegic.value.DoubleValue
76.225

@<SCITEGIC>MOL_PROPERTY
E
SciTegic.value.DoubleValue
43.964

@<SCITEGIC>MOL_PROPERTY
-TS
SciTegic.value.DoubleValue
32.261

@<SCITEGIC>MOL_PROPERTY
U+W
SciTegic.value.DoubleValue
22.502

@<SCITEGIC>MOL_PROPERTY
U
SciTegic.value.DoubleValue
71.348

@<SCITEGIC>MOL_PROPERTY
W
SciTegic.value.DoubleValue
-48.846

@<SCITEGIC>MOL_PROPERTY
W(PB)
SciTegic.value.DoubleValue
-51.157

@<SCITEGIC>MOL_PROPERTY
W(SA)
SciTegic.value.DoubleValue
2.311

@<SCITEGIC>MOL_PROPERTY
Valence
SciTegic.value.DoubleValue
2.262

@<SCITEGIC>MOL_PROPERTY
Coulomb
SciTegic.value.DoubleValue
68.807

@<SCITEGIC>MOL_PROPERTY
VdW
SciTegic.value.DoubleValue
0.280

@<SCITEGIC>MOL_PROPERTY
VdW6
SciTegic.value.DoubleValue
-5.916

@<SCITEGIC>MOL_PROPERTY
VdW12
SciTegic.value.DoubleValue
6.195

@<SCITEGIC>MOL_PROPERTY
Bond
SciTegic.value.DoubleValue
0.164

@<SCITEGIC>MOL_PROPERTY
Angle
SciTegic.value.DoubleValue
0.622

@<SCITEGIC>MOL_PROPERTY
Pdih
SciTegic.value.DoubleValue
1.475

@<SCITEGIC>MOL_PROPERTY
Idih
SciTegic.value.DoubleValue
0.000

@<SCITEGIC>MOL_PROPERTY
Tether
SciTegic.value.DoubleValue
0.000

@<TRIPOS>MOLECULE
guest-s12_vm2.mol2 : vm2 ligand conformer 14
          26          25           1
SMALL
USER_CHARGES
 
@<TRIPOS>ATOM
       1    N1      20.439973   18.641475   26.215079 N.4        1 MOL1        -0.4857
       2    H1      21.453860   18.593977   26.029115 H          1 MOL1         0.3650
       3    H2      20.113420   17.662611   26.208473 H          1 MOL1         0.3650
       4    C1      19.744564   19.432071   25.124994 C.3        1 MOL1         0.0209
       5    H3      20.122962   20.456790   25.160576 H          1 MOL1         0.0967
       6    H4      18.676219   19.451363   25.354675 H          1 MOL1         0.0967
       7    C2      19.961216   18.848699   23.716869 C.3        1 MOL1        -0.1378
       8    H5      21.037404   18.816930   23.505525 H          1 MOL1         0.0993
       9    H6      19.594420   17.813980   23.690531 H          1 MOL1         0.0993
      10    C3      19.231025   19.687779   22.641707 C.3        1 MOL1        -0.1338
      11    H7      19.632189   20.710832   22.634345 H          1 MOL1         0.0993
      12    H8      18.170701   19.775129   22.917125 H          1 MOL1         0.0993
      13    C4      19.320119   19.085017   21.217825 C.3        1 MOL1        -0.1338
      14    H9      18.902724   18.068594   21.221101 H          1 MOL1         0.0993
      15    H10     18.680995   19.677611   20.548643 H          1 MOL1         0.0993
      16    C5      20.757223   19.057023   20.645034 C.3        1 MOL1        -0.1313
      17    H11     21.396539   18.405223   21.255077 H          1 MOL1         0.0993
      18    H12     21.194333   20.064377   20.689402 H          1 MOL1         0.0993
      19    C6      20.778703   18.554398   19.185604 C.3        1 MOL1        -0.2328
      20    H13     21.804929   18.538043   18.796226 H          1 MOL1         0.1004
      21    H14     20.182183   19.206210   18.534069 H          1 MOL1         0.1004
      22    H15     20.374678   17.536223   19.112858 H          1 MOL1         0.1004
      23    C7      20.175175   19.283537   27.569887 C.3        1 MOL1        -0.0781
      24    H16     19.099479   19.292507   27.758993 H          1 MOL1         0.0978
      25    H17     20.681259   18.704630   28.345704 H          1 MOL1         0.0978
      26    H18     20.558472   20.306284   27.563718 H          1 MOL1         0.0978
@<TRIPOS>BOND
    1     1     2    1
    2     1     3    1
    3     1     4    1
    4     4     5    1
    5     4     6    1
    6     4     7    1
    7     7     8    1
    8     7     9    1
    9     7    10    1
   10    10    11    1
   11    10    12    1
   12    10    13    1
   13    13    14    1
   14    13    15    1
   15    13    16    1
   16    16    17    1
   17    16    18    1
   18    16    19    1
   19    19    20    1
   20    19    21    1
   21    19    22    1
   22     1    23    1
   23    23    24    1
   24    23    25    1
   25    23    26    1
@<TRIPOS>SUBSTRUCTURE
       1 MOL1            1 RESIDUE      1      MOL     
@<SCITEGIC>MOL_PROPERTY
VM2 Rank
SciTegic.value.IntegerValue
14

@<SCITEGIC>MOL_PROPERTY
Conf_Id
SciTegic.value.IntegerValue
489

@<SCITEGIC>MOL_PROPERTY
Probability
SciTegic.value.DoubleValue
1.91

@<SCITEGIC>MOL_PROPERTY
Sum Probability
SciTegic.value.DoubleValue
41.70

@<SCITEGIC>MOL_PROPERTY
Delta G
SciTegic.value.DoubleValue
0.766

@<SCITEGIC>MOL_PROPERTY
G
SciTegic.value.DoubleValue
76.232

@<SCITEGIC>MOL_PROPERTY
E
SciTegic.value.DoubleValue
43.972

@<SCITEGIC>MOL_PROPERTY
-TS
SciTegic.value.DoubleValue
32.261

@<SCITEGIC>MOL_PROPERTY
U+W
SciTegic.value.DoubleValue
22.510

@<SCITEGIC>MOL_PROPERTY
U
SciTegic.value.DoubleValue
71.348

@<SCITEGIC>MOL_PROPERTY
W
SciTegic.value.DoubleValue
-48.839

@<SCITEGIC>MOL_PROPERTY
W(PB)
SciTegic.value.DoubleValue
-51.152

@<SCITEGIC>MOL_PROPERTY
W(SA)
SciTegic.value.DoubleValue
2.313

@<SCITEGIC>MOL_PROPERTY
Valence
SciTegic.value.DoubleValue
2.262

@<SCITEGIC>MOL_PROPERTY
Coulomb
SciTegic.value.DoubleValue
68.807

@<SCITEGIC>MOL_PROPERTY
VdW
SciTegic.value.DoubleValue
0.280

@<SCITEGIC>MOL_PROPERTY
VdW6
SciTegic.value.DoubleValue
-5.915

@<SCITEGIC>MOL_PROPERTY
VdW12
SciTegic.value.DoubleValue
6.195

@<SCITEGIC>MOL_PROPERTY
Bond
SciTegic.value.DoubleValue
0.164

@<SCITEGIC>MOL_PROPERTY
Angle
SciTegic.value.DoubleValue
0.622

@<SCITEGIC>MOL_PROPERTY
Pdih
SciTegic.value.DoubleValue
1.475

@<SCITEGIC>MOL_PROPERTY
Idih
SciTegic.value.DoubleValue
0.000

@<SCITEGIC>MOL_PROPERTY
Tether
SciTegic.value.DoubleValue
0.000

@<TRIPOS>MOLECULE
guest-s12_vm2.mol2 : vm2 ligand conformer 15
          26          25           1
SMALL
USER_CHARGES
 
@<TRIPOS>ATOM
       1    N1      19.632910   18.306192   26.178877 N.4        1 MOL1        -0.4857
       2    H1      20.399843   17.616865   26.211849 H          1 MOL1         0.3650
       3    H2      18.785734   17.774418   26.434686 H          1 MOL1         0.3650
       4    C1      19.481338   18.856909   24.770707 C.3        1 MOL1         0.0209
       5    H3      18.694427   19.615046   24.788596 H          1 MOL1         0.0967
       6    H4      19.144193   18.032558   24.137947 H          1 MOL1         0.0967
       7    C2      20.773399   19.455388   24.174254 C.3        1 MOL1        -0.1378
       8    H5      21.117291   20.284565   24.805749 H          1 MOL1         0.0993
       9    H6      21.569766   18.699585   24.187595 H          1 MOL1         0.0993
      10    C3      20.578345   19.979403   22.731740 C.3        1 MOL1        -0.1338
      11    H7      21.505063   20.473863   22.408989 H          1 MOL1         0.0993
      12    H8      19.796455   20.751579   22.725261 H          1 MOL1         0.0993
      13    C4      20.219218   18.863451   21.720986 C.3        1 MOL1        -0.1338
      14    H9      20.984733   18.075925   21.755947 H          1 MOL1         0.0993
      15    H10     19.266836   18.394260   22.001607 H          1 MOL1         0.0993
      16    C5      20.108723   19.408593   20.279520 C.3        1 MOL1        -0.1313
      17    H11     21.059846   19.873416   19.984075 H          1 MOL1         0.0993
      18    H12     19.344627   20.197582   20.238784 H          1 MOL1         0.0993
      19    C6      19.749142   18.295289   19.272445 C.3        1 MOL1        -0.2328
      20    H13     18.784402   17.834158   19.521096 H          1 MOL1         0.1004
      21    H14     20.513177   17.506997   19.265728 H          1 MOL1         0.1004
      22    H15     19.675758   18.701561   18.255299 H          1 MOL1         0.1004
      23    C7      19.864924   19.424774   27.188471 C.3        1 MOL1        -0.0781
      24    H16     19.030239   20.127691   27.143229 H          1 MOL1         0.0978
      25    H17     19.930024   18.993882   28.190059 H          1 MOL1         0.0978
      26    H18     20.797304   19.940290   26.949944 H          1 MOL1         0.0978
@<TRIPOS>BOND
    1     1     2    1
    2     1     3    1
    3     1     4    1
    4     4     5    1
    5     4     6    1
    6     4     7    1
    7     7     8    1
    8     7     9    1
    9     7    10    1
   10    10    11    1
   11    10    12    1
   12    10    13    1
   13    13    14    1
   14    13    15    1
   15    13    16    1
   16    16    17    1
   17    16    18    1
   18    16    19    1
   19    19    20    1
   20    19    21    1
   21    19    22    1
   22     1    23    1
   23    23    24    1
   24    23    25    1
   25    23    26    1
@<TRIPOS>SUBSTRUCTURE
       1 MOL1            1 RESIDUE      1      MOL     
@<SCITEGIC>MOL_PROPERTY
VM2 Rank
SciTegic.value.IntegerValue
15

@<SCITEGIC>MOL_PROPERTY
Conf_Id
SciTegic.value.IntegerValue
1280

@<SCITEGIC>MOL_PROPERTY
Probability
SciTegic.value.DoubleValue
1.79

@<SCITEGIC>MOL_PROPERTY
Sum Probability
SciTegic.value.DoubleValue
43.48

@<SCITEGIC>MOL_PROPERTY
Delta G
SciTegic.value.DoubleValue
0.807

@<SCITEGIC>MOL_PROPERTY
G
SciTegic.value.DoubleValue
76.273

@<SCITEGIC>MOL_PROPERTY
E
SciTegic.value.DoubleValue
43.845

@<SCITEGIC>MOL_PROPERTY
-TS
SciTegic.value.DoubleValue
32.428

@<SCITEGIC>MOL_PROPERTY
U+W
SciTegic.value.DoubleValue
22.383

@<SCITEGIC>MOL_PROPERTY
U
SciTegic.value.DoubleValue
71.628

@<SCITEGIC>MOL_PROPERTY
W
SciTegic.value.DoubleValue
-49.244

@<SCITEGIC>MOL_PROPERTY
W(PB)
SciTegic.value.DoubleValue
-51.547

@<SCITEGIC>MOL_PROPERTY
W(SA)
SciTegic.value.DoubleValue
2.302

@<SCITEGIC>MOL_PROPERTY
Valence
SciTegic.value.DoubleValue
2.314

@<SCITEGIC>MOL_PROPERTY
Coulomb
SciTegic.value.DoubleValue
68.823

@<SCITEGIC>MOL_PROPERTY
VdW
SciTegic.value.DoubleValue
0.491

@<SCITEGIC>MOL_PROPERTY
VdW6
SciTegic.value.DoubleValue
-6.572

@<SCITEGIC>MOL_PROPERTY
VdW12
SciTegic.value.DoubleValue
7.063

@<SCITEGIC>MOL_PROPERTY
Bond
SciTegic.value.DoubleValue
0.188

@<SCITEGIC>MOL_PROPERTY
Angle
SciTegic.value.DoubleValue
0.606

@<SCITEGIC>MOL_PROPERTY
Pdih
SciTegic.value.DoubleValue
1.519

@<SCITEGIC>MOL_PROPERTY
Idih
SciTegic.value.DoubleValue
0.000

@<SCITEGIC>MOL_PROPERTY
Tether
SciTegic.value.DoubleValue
0.000

@<TRIPOS>MOLECULE
guest-s12_vm2.mol2 : vm2 ligand conformer 16
          26          25           1
SMALL
USER_CHARGES
 
@<TRIPOS>ATOM
       1    N1      20.412432   18.385935   26.206412 N.4        1 MOL1        -0.4857
       2    H1      21.329669   18.034806   26.524716 H          1 MOL1         0.3650
       3    H2      19.800521   17.555419   26.190450 H          1 MOL1         0.3650
       4    C1      20.547654   18.966135   24.808455 C.3        1 MOL1         0.0209
       5    H3      21.088066   18.231651   24.206712 H          1 MOL1         0.0967
       6    H4      21.161679   19.867649   24.876038 H          1 MOL1         0.0967
       7    C2      19.206228   19.295151   24.118761 C.3        1 MOL1        -0.1378
       8    H5      18.580239   18.393828   24.081774 H          1 MOL1         0.0993
       9    H6      18.658407   20.033117   24.718662 H          1 MOL1         0.0993
      10    C3      19.391753   19.858053   22.689704 C.3        1 MOL1        -0.1338
      11    H7      19.999856   20.772403   22.732410 H          1 MOL1         0.0993
      12    H8      18.409106   20.157201   22.299342 H          1 MOL1         0.0993
      13    C4      20.038952   18.844998   21.714614 C.3        1 MOL1        -0.1338
      14    H9      21.044470   18.576015   22.064614 H          1 MOL1         0.0993
      15    H10     19.447911   17.918753   21.701515 H          1 MOL1         0.0993
      16    C5      20.137674   19.411517   20.280558 C.3        1 MOL1        -0.1313
      17    H11     20.727364   20.338997   20.287804 H          1 MOL1         0.0993
      18    H12     19.135296   19.676489   19.915849 H          1 MOL1         0.0993
      19    C6      20.784657   18.401168   19.309191 C.3        1 MOL1        -0.2328
      20    H13     20.845392   18.821114   18.296777 H          1 MOL1         0.1004
      21    H14     20.198272   17.474679   19.254679 H          1 MOL1         0.1004
      22    H15     21.802902   18.142976   19.628107 H          1 MOL1         0.1004
      23    C7      19.888650   19.427043   27.189305 C.3        1 MOL1        -0.0781
      24    H16     19.842098   18.984631   28.186898 H          1 MOL1         0.0978
      25    H17     20.564851   20.284667   27.197689 H          1 MOL1         0.0978
      26    H18     18.890277   19.744885   26.882367 H          1 MOL1         0.0978
@<TRIPOS>BOND
    1     1     2    1
    2     1     3    1
    3     1     4    1
    4     4     5    1
    5     4     6    1
    6     4     7    1
    7     7     8    1
    8     7     9    1
    9     7    10    1
   10    10    11    1
   11    10    12    1
   12    10    13    1
   13    13    14    1
   14    13    15    1
   15    13    16    1
   16    16    17    1
   17    16    18    1
   18    16    19    1
   19    19    20    1
   20    19    21    1
   21    19    22    1
   22     1    23    1
   23    23    24    1
   24    23    25    1
   25    23    26    1
@<TRIPOS>SUBSTRUCTURE
       1 MOL1            1 RESIDUE      1      MOL     
@<SCITEGIC>MOL_PROPERTY
VM2 Rank
SciTegic.value.IntegerValue
16

@<SCITEGIC>MOL_PROPERTY
Conf_Id
SciTegic.value.IntegerValue
273

@<SCITEGIC>MOL_PROPERTY
Probability
SciTegic.value.DoubleValue
1.68

@<SCITEGIC>MOL_PROPERTY
Sum Probability
SciTegic.value.DoubleValue
45.17

@<SCITEGIC>MOL_PROPERTY
Delta G
SciTegic.value.DoubleValue
0.843

@<SCITEGIC>MOL_PROPERTY
G
SciTegic.value.DoubleValue
76.309

@<SCITEGIC>MOL_PROPERTY
E
SciTegic.value.DoubleValue
43.882

@<SCITEGIC>MOL_PROPERTY
-TS
SciTegic.value.DoubleValue
32.428

@<SCITEGIC>MOL_PROPERTY
U+W
SciTegic.value.DoubleValue
22.420

@<SCITEGIC>MOL_PROPERTY
U
SciTegic.value.DoubleValue
71.628

@<SCITEGIC>MOL_PROPERTY
W
SciTegic.value.DoubleValue
-49.208

@<SCITEGIC>MOL_PROPERTY
W(PB)
SciTegic.value.DoubleValue
-51.516

@<SCITEGIC>MOL_PROPERTY
W(SA)
SciTegic.value.DoubleValue
2.308

@<SCITEGIC>MOL_PROPERTY
Valence
SciTegic.value.DoubleValue
2.314

@<SCITEGIC>MOL_PROPERTY
Coulomb
SciTegic.value.DoubleValue
68.823

@<SCITEGIC>MOL_PROPERTY
VdW
SciTegic.value.DoubleValue
0.491

@<SCITEGIC>MOL_PROPERTY
VdW6
SciTegic.value.DoubleValue
-6.572

@<SCITEGIC>MOL_PROPERTY
VdW12
SciTegic.value.DoubleValue
7.063

@<SCITEGIC>MOL_PROPERTY
Bond
SciTegic.value.DoubleValue
0.188

@<SCITEGIC>MOL_PROPERTY
Angle
SciTegic.value.DoubleValue
0.606

@<SCITEGIC>MOL_PROPERTY
Pdih
SciTegic.value.DoubleValue
1.519

@<SCITEGIC>MOL_PROPERTY
Idih
SciTegic.value.DoubleValue
0.000

@<SCITEGIC>MOL_PROPERTY
Tether
SciTegic.value.DoubleValue
0.000

@<TRIPOS>MOLECULE
guest-s12_vm2.mol2 : vm2 ligand conformer 17
          26          25           1
SMALL
USER_CHARGES
 
@<TRIPOS>ATOM
       1    N1      19.567911   18.575907   26.454238 N.4        1 MOL1        -0.4857
       2    H1      20.045529   17.661606   26.474691 H          1 MOL1         0.3650
       3    H2      18.720864   18.446664   27.030250 H          1 MOL1         0.3650
       4    C1      19.166272   18.927188   25.031392 C.3        1 MOL1         0.0209
       5    H3      18.701354   19.916126   25.047248 H          1 MOL1         0.0967
       6    H4      18.410265   18.202133   24.719282 H          1 MOL1         0.0967
       7    C2      20.326681   18.909347   24.015616 C.3        1 MOL1        -0.1378
       8    H5      21.079814   19.655612   24.299703 H          1 MOL1         0.0993
       9    H6      20.818999   17.928207   24.042260 H          1 MOL1         0.0993
      10    C3      19.826461   19.200874   22.583363 C.3        1 MOL1        -0.1338
      11    H7      19.332095   20.182019   22.561201 H          1 MOL1         0.0993
      12    H8      19.068207   18.455348   22.309590 H          1 MOL1         0.0993
      13    C4      20.982710   19.180341   21.554483 C.3        1 MOL1        -0.1338
      14    H9      21.765213   19.879855   21.879739 H          1 MOL1         0.0993
      15    H10     21.446642   18.184434   21.537706 H          1 MOL1         0.0993
      16    C5      20.541608   19.568815   20.122367 C.3        1 MOL1        -0.1313
      17    H11     21.433876   19.632613   19.483873 H          1 MOL1         0.0993
      18    H12     20.097286   20.573973   20.129933 H          1 MOL1         0.0993
      19    C6      19.548642   18.566201   19.491283 C.3        1 MOL1        -0.2328
      20    H13     19.957638   17.547540   19.498308 H          1 MOL1         0.1004
      21    H14     19.340747   18.836730   18.447958 H          1 MOL1         0.1004
      22    H15     18.590691   18.556229   20.025712 H          1 MOL1         0.1004
      23    C7      20.447715   19.661327   27.064258 C.3        1 MOL1        -0.0781
      24    H16     20.684063   19.391495   28.095967 H          1 MOL1         0.0978
      25    H17     21.370471   19.746229   26.486881 H          1 MOL1         0.0978
      26    H18     19.909751   20.611642   27.045823 H          1 MOL1         0.0978
@<TRIPOS>BOND
    1     1     2    1
    2     1     3    1
    3     1     4    1
    4     4     5    1
    5     4     6    1
    6     4     7    1
    7     7     8    1
    8     7     9    1
    9     7    10    1
   10    10    11    1
   11    10    12    1
   12    10    13    1
   13    13    14    1
   14    13    15    1
   15    13    16    1
   16    16    17    1
   17    16    18    1
   18    16    19    1
   19    19    20    1
   20    19    21    1
   21    19    22    1
   22     1    23    1
   23    23    24    1
   24    23    25    1
   25    23    26    1
@<TRIPOS>SUBSTRUCTURE
       1 MOL1            1 RESIDUE      1      MOL     
@<SCITEGIC>MOL_PROPERTY
VM2 Rank
SciTegic.value.IntegerValue
17

@<SCITEGIC>MOL_PROPERTY
Conf_Id
SciTegic.value.IntegerValue
728

@<SCITEGIC>MOL_PROPERTY
Probability
SciTegic.value.DoubleValue
1.52

@<SCITEGIC>MOL_PROPERTY
Sum Probability
SciTegic.value.DoubleValue
46.69

@<SCITEGIC>MOL_PROPERTY
Delta G
SciTegic.value.DoubleValue
0.903

@<SCITEGIC>MOL_PROPERTY
G
SciTegic.value.DoubleValue
76.369

@<SCITEGIC>MOL_PROPERTY
E
SciTegic.value.DoubleValue
43.926

@<SCITEGIC>MOL_PROPERTY
-TS
SciTegic.value.DoubleValue
32.443

@<SCITEGIC>MOL_PROPERTY
U+W
SciTegic.value.DoubleValue
22.464

@<SCITEGIC>MOL_PROPERTY
U
SciTegic.value.DoubleValue
71.429

@<SCITEGIC>MOL_PROPERTY
W
SciTegic.value.DoubleValue
-48.965

@<SCITEGIC>MOL_PROPERTY
W(PB)
SciTegic.value.DoubleValue
-51.237

@<SCITEGIC>MOL_PROPERTY
W(SA)
SciTegic.value.DoubleValue
2.272

@<SCITEGIC>MOL_PROPERTY
Valence
SciTegic.value.DoubleValue
2.501

@<SCITEGIC>MOL_PROPERTY
Coulomb
SciTegic.value.DoubleValue
68.364

@<SCITEGIC>MOL_PROPERTY
VdW
SciTegic.value.DoubleValue
0.564

@<SCITEGIC>MOL_PROPERTY
VdW6
SciTegic.value.DoubleValue
-6.585

@<SCITEGIC>MOL_PROPERTY
VdW12
SciTegic.value.DoubleValue
7.150

@<SCITEGIC>MOL_PROPERTY
Bond
SciTegic.value.DoubleValue
0.197

@<SCITEGIC>MOL_PROPERTY
Angle
SciTegic.value.DoubleValue
0.717

@<SCITEGIC>MOL_PROPERTY
Pdih
SciTegic.value.DoubleValue
1.587

@<SCITEGIC>MOL_PROPERTY
Idih
SciTegic.value.DoubleValue
0.000

@<SCITEGIC>MOL_PROPERTY
Tether
SciTegic.value.DoubleValue
0.000

@<TRIPOS>MOLECULE
guest-s12_vm2.mol2 : vm2 ligand conformer 18
          26          25           1
SMALL
USER_CHARGES
 
@<TRIPOS>ATOM
       1    N1      19.477507   19.169074   26.494106 N.4        1 MOL1        -0.4857
       2    H1      19.085524   18.221531   26.608109 H          1 MOL1         0.3650
       3    H2      18.900133   19.770950   27.102681 H          1 MOL1         0.3650
       4    C1      19.339914   19.624450   25.050890 C.3        1 MOL1         0.0209
       5    H3      19.800851   20.611555   24.963978 H          1 MOL1         0.0967
       6    H4      18.271784   19.729675   24.844257 H          1 MOL1         0.0967
       7    C2      19.958062   18.663776   24.014721 C.3        1 MOL1        -0.1378
       8    H5      21.037696   18.572475   24.190585 H          1 MOL1         0.0993
       9    H6      19.524824   17.662980   24.142760 H          1 MOL1         0.0993
      10    C3      19.711857   19.157150   22.571640 C.3        1 MOL1        -0.1338
      11    H7      20.138330   20.162744   22.459219 H          1 MOL1         0.0993
      12    H8      18.631056   19.247135   22.394761 H          1 MOL1         0.0993
      13    C4      20.330165   18.201050   21.523084 C.3        1 MOL1        -0.1338
      14    H9      21.418525   18.148868   21.664842 H          1 MOL1         0.0993
      15    H10     19.947656   17.185201   21.693858 H          1 MOL1         0.0993
      16    C5      20.018504   18.603556   20.061140 C.3        1 MOL1        -0.1313
      17    H11     18.930674   18.635056   19.907989 H          1 MOL1         0.0993
      18    H12     20.400118   17.820524   19.390979 H          1 MOL1         0.0993
      19    C6      20.640836   19.957458   19.649876 C.3        1 MOL1        -0.2328
      20    H13     21.725154   19.962097   19.820842 H          1 MOL1         0.1004
      21    H14     20.200360   20.791095   20.210605 H          1 MOL1         0.1004
      22    H15     20.468873   20.150919   18.583137 H          1 MOL1         0.1004
      23    C7      20.931155   19.213486   26.951542 C.3        1 MOL1        -0.0781
      24    H16     21.312366   20.230545   26.837035 H          1 MOL1         0.0978
      25    H17     20.984479   18.915832   28.001138 H          1 MOL1         0.0978
      26    H18     21.522732   18.525139   26.344693 H          1 MOL1         0.0978
@<TRIPOS>BOND
    1     1     2    1
    2     1     3    1
    3     1     4    1
    4     4     5    1
    5     4     6    1
    6     4     7    1
    7     7     8    1
    8     7     9    1
    9     7    10    1
   10    10    11    1
   11    10    12    1
   12    10    13    1
   13    13    14    1
   14    13    15    1
   15    13    16    1
   16    16    17    1
   17    16    18    1
   18    16    19    1
   19    19    20    1
   20    19    21    1
   21    19    22    1
   22     1    23    1
   23    23    24    1
   24    23    25    1
   25    23    26    1
@<TRIPOS>SUBSTRUCTURE
       1 MOL1            1 RESIDUE      1      MOL     
@<SCITEGIC>MOL_PROPERTY
VM2 Rank
SciTegic.value.IntegerValue
18

@<SCITEGIC>MOL_PROPERTY
Conf_Id
SciTegic.value.IntegerValue
1074

@<SCITEGIC>MOL_PROPERTY
Probability
SciTegic.value.DoubleValue
1.46

@<SCITEGIC>MOL_PROPERTY
Sum Probability
SciTegic.value.DoubleValue
48.14

@<SCITEGIC>MOL_PROPERTY
Delta G
SciTegic.value.DoubleValue
0.930

@<SCITEGIC>MOL_PROPERTY
G
SciTegic.value.DoubleValue
76.395

@<SCITEGIC>MOL_PROPERTY
E
SciTegic.value.DoubleValue
43.953

@<SCITEGIC>MOL_PROPERTY
-TS
SciTegic.value.DoubleValue
32.443

@<SCITEGIC>MOL_PROPERTY
U+W
SciTegic.value.DoubleValue
22.491

@<SCITEGIC>MOL_PROPERTY
U
SciTegic.value.DoubleValue
71.422

@<SCITEGIC>MOL_PROPERTY
W
SciTegic.value.DoubleValue
-48.931

@<SCITEGIC>MOL_PROPERTY
W(PB)
SciTegic.value.DoubleValue
-51.230

@<SCITEGIC>MOL_PROPERTY
W(SA)
SciTegic.value.DoubleValue
2.299

@<SCITEGIC>MOL_PROPERTY
Valence
SciTegic.value.DoubleValue
2.501

@<SCITEGIC>MOL_PROPERTY
Coulomb
SciTegic.value.DoubleValue
68.359

@<SCITEGIC>MOL_PROPERTY
VdW
SciTegic.value.DoubleValue
0.562

@<SCITEGIC>MOL_PROPERTY
VdW6
SciTegic.value.DoubleValue
-6.587

@<SCITEGIC>MOL_PROPERTY
VdW12
SciTegic.value.DoubleValue
7.149

@<SCITEGIC>MOL_PROPERTY
Bond
SciTegic.value.DoubleValue
0.197

@<SCITEGIC>MOL_PROPERTY
Angle
SciTegic.value.DoubleValue
0.717

@<SCITEGIC>MOL_PROPERTY
Pdih
SciTegic.value.DoubleValue
1.587

@<SCITEGIC>MOL_PROPERTY
Idih
SciTegic.value.DoubleValue
0.000

@<SCITEGIC>MOL_PROPERTY
Tether
SciTegic.value.DoubleValue
0.000

@<TRIPOS>MOLECULE
guest-s12_vm2.mol2 : vm2 ligand conformer 19
          26          25           1
SMALL
USER_CHARGES
 
@<TRIPOS>ATOM
       1    N1      20.367528   19.259621   26.525665 N.4        1 MOL1        -0.4857
       2    H1      20.767904   19.960968   27.168932 H          1 MOL1         0.3650
       3    H2      20.933069   18.409481   26.673673 H          1 MOL1         0.3650
       4    C1      20.511679   19.743622   25.092438 C.3        1 MOL1         0.0209
       5    H3      21.548630   20.063004   24.960537 H          1 MOL1         0.0967
       6    H4      19.868884   20.618436   24.966309 H          1 MOL1         0.0967
       7    C2      20.173694   18.685639   24.022352 C.3        1 MOL1        -0.1378
       8    H5      20.789419   17.791618   24.187562 H          1 MOL1         0.0993
       9    H6      19.124909   18.377675   24.122758 H          1 MOL1         0.0993
      10    C3      20.416078   19.228782   22.596599 C.3        1 MOL1        -0.1338
      11    H7      21.466337   19.535704   22.495256 H          1 MOL1         0.0993
      12    H8      19.804897   20.128751   22.447427 H          1 MOL1         0.0993
      13    C4      20.077862   18.175338   21.514117 C.3        1 MOL1        -0.1338
      14    H9      20.644224   17.256132   21.718371 H          1 MOL1         0.0993
      15    H10     19.015119   17.904020   21.579770 H          1 MOL1         0.0993
      16    C5      20.403498   18.642895   20.074749 C.3        1 MOL1        -0.1313
      17    H11     20.235276   17.803884   19.385078 H          1 MOL1         0.0993
      18    H12     21.470666   18.894011   19.997828 H          1 MOL1         0.0993
      19    C6      19.551455   19.846578   19.611435 C.3        1 MOL1        -0.2328
      20    H13     18.479196   19.631468   19.706219 H          1 MOL1         0.1004
      21    H14     19.754982   20.078331   18.557966 H          1 MOL1         0.1004
      22    H15     19.774708   20.747828   20.195635 H          1 MOL1         0.1004
      23    C7      18.906205   19.007525   26.879646 C.3        1 MOL1        -0.0781
      24    H16     18.509226   18.218575   26.237762 H          1 MOL1         0.0978
      25    H17     18.840316   18.697806   27.925029 H          1 MOL1         0.0978
      26    H18     18.337221   19.927913   26.731366 H          1 MOL1         0.0978
@<TRIPOS>BOND
    1     1     2    1
    2     1     3    1
    3     1     4    1
    4     4     5    1
    5     4     6    1
    6     4     7    1
    7     7     8    1
    8     7     9    1
    9     7    10    1
   10    10    11    1
   11    10    12    1
   12    10    13    1
   13    13    14    1
   14    13    15    1
   15    13    16    1
   16    16    17    1
   17    16    18    1
   18    16    19    1
   19    19    20    1
   20    19    21    1
   21    19    22    1
   22     1    23    1
   23    23    24    1
   24    23    25    1
   25    23    26    1
@<TRIPOS>SUBSTRUCTURE
       1 MOL1            1 RESIDUE      1      MOL     
@<SCITEGIC>MOL_PROPERTY
VM2 Rank
SciTegic.value.IntegerValue
19

@<SCITEGIC>MOL_PROPERTY
Conf_Id
SciTegic.value.IntegerValue
532

@<SCITEGIC>MOL_PROPERTY
Probability
SciTegic.value.DoubleValue
1.45

@<SCITEGIC>MOL_PROPERTY
Sum Probability
SciTegic.value.DoubleValue
49.59

@<SCITEGIC>MOL_PROPERTY
Delta G
SciTegic.value.DoubleValue
0.932

@<SCITEGIC>MOL_PROPERTY
G
SciTegic.value.DoubleValue
76.398

@<SCITEGIC>MOL_PROPERTY
E
SciTegic.value.DoubleValue
43.955

@<SCITEGIC>MOL_PROPERTY
-TS
SciTegic.value.DoubleValue
32.443

@<SCITEGIC>MOL_PROPERTY
U+W
SciTegic.value.DoubleValue
22.493

@<SCITEGIC>MOL_PROPERTY
U
SciTegic.value.DoubleValue
71.422

@<SCITEGIC>MOL_PROPERTY
W
SciTegic.value.DoubleValue
-48.928

@<SCITEGIC>MOL_PROPERTY
W(PB)
SciTegic.value.DoubleValue
-51.221

@<SCITEGIC>MOL_PROPERTY
W(SA)
SciTegic.value.DoubleValue
2.292

@<SCITEGIC>MOL_PROPERTY
Valence
SciTegic.value.DoubleValue
2.501

@<SCITEGIC>MOL_PROPERTY
Coulomb
SciTegic.value.DoubleValue
68.359

@<SCITEGIC>MOL_PROPERTY
VdW
SciTegic.value.DoubleValue
0.562

@<SCITEGIC>MOL_PROPERTY
VdW6
SciTegic.value.DoubleValue
-6.587

@<SCITEGIC>MOL_PROPERTY
VdW12
SciTegic.value.DoubleValue
7.149

@<SCITEGIC>MOL_PROPERTY
Bond
SciTegic.value.DoubleValue
0.197

@<SCITEGIC>MOL_PROPERTY
Angle
SciTegic.value.DoubleValue
0.717

@<SCITEGIC>MOL_PROPERTY
Pdih
SciTegic.value.DoubleValue
1.587

@<SCITEGIC>MOL_PROPERTY
Idih
SciTegic.value.DoubleValue
0.000

@<SCITEGIC>MOL_PROPERTY
Tether
SciTegic.value.DoubleValue
0.000

@<TRIPOS>MOLECULE
guest-s12_vm2.mol2 : vm2 ligand conformer 20
          26          25           1
SMALL
USER_CHARGES
 
@<TRIPOS>ATOM
       1    N1      20.401833   18.661126   26.483772 N.4        1 MOL1        -0.4857
       2    H1      21.215105   18.701421   27.118553 H          1 MOL1         0.3650
       3    H2      20.118361   17.669116   26.477310 H          1 MOL1         0.3650
       4    C1      20.822868   19.096358   25.090038 C.3        1 MOL1         0.0209
       5    H3      21.729630   18.541085   24.836821 H          1 MOL1         0.0967
       6    H4      21.076307   20.158652   25.131272 H          1 MOL1         0.0967
       7    C2      19.763961   18.851838   23.995695 C.3        1 MOL1        -0.1378
       8    H5      19.479205   17.791349   23.994870 H          1 MOL1         0.0993
       9    H6      18.857687   19.428674   24.220988 H          1 MOL1         0.0993
      10    C3      20.294071   19.248512   22.599923 C.3        1 MOL1        -0.1338
      11    H7      21.204539   18.673442   22.385323 H          1 MOL1         0.0993
      12    H8      20.580418   20.309413   22.605362 H          1 MOL1         0.0993
      13    C4      19.240795   19.002187   21.492741 C.3        1 MOL1        -0.1338
      14    H9      18.990039   17.933222   21.450545 H          1 MOL1         0.0993
      15    H10     18.312249   19.526759   21.757407 H          1 MOL1         0.0993
      16    C5      19.693528   19.482178   20.092356 C.3        1 MOL1        -0.1313
      17    H11     19.923892   20.556309   20.123962 H          1 MOL1         0.0993
      18    H12     18.853770   19.368983   19.392445 H          1 MOL1         0.0993
      19    C6      20.910383   18.705554   19.539538 C.3        1 MOL1        -0.2328
      20    H13     21.810686   18.885402   20.139949 H          1 MOL1         0.1004
      21    H14     21.131997   19.020197   18.511522 H          1 MOL1         0.1004
      22    H15     20.716198   17.625241   19.524944 H          1 MOL1         0.1004
      23    C7      19.280562   19.542246   27.022936 C.3        1 MOL1        -0.0781
      24    H16     18.402371   19.443250   26.381819 H          1 MOL1         0.0978
      25    H17     19.031949   19.222920   28.037488 H          1 MOL1         0.0978
      26    H18     19.615574   20.581695   27.035379 H          1 MOL1         0.0978
@<TRIPOS>BOND
    1     1     2    1
    2     1     3    1
    3     1     4    1
    4     4     5    1
    5     4     6    1
    6     4     7    1
    7     7     8    1
    8     7     9    1
    9     7    10    1
   10    10    11    1
   11    10    12    1
   12    10    13    1
   13    13    14    1
   14    13    15    1
   15    13    16    1
   16    16    17    1
   17    16    18    1
   18    16    19    1
   19    19    20    1
   20    19    21    1
   21    19    22    1
   22     1    23    1
   23    23    24    1
   24    23    25    1
   25    23    26    1
@<TRIPOS>SUBSTRUCTURE
       1 MOL1            1 RESIDUE      1      MOL     
@<SCITEGIC>MOL_PROPERTY
VM2 Rank
SciTegic.value.IntegerValue
20

@<SCITEGIC>MOL_PROPERTY
Conf_Id
SciTegic.value.IntegerValue
1075

@<SCITEGIC>MOL_PROPERTY
Probability
SciTegic.value.DoubleValue
1.39

@<SCITEGIC>MOL_PROPERTY
Sum Probability
SciTegic.value.DoubleValue
50.98

@<SCITEGIC>MOL_PROPERTY
Delta G
SciTegic.value.DoubleValue
0.958

@<SCITEGIC>MOL_PROPERTY
G
SciTegic.value.DoubleValue
76.424

@<SCITEGIC>MOL_PROPERTY
E
SciTegic.value.DoubleValue
43.981

@<SCITEGIC>MOL_PROPERTY
-TS
SciTegic.value.DoubleValue
32.443

@<SCITEGIC>MOL_PROPERTY
U+W
SciTegic.value.DoubleValue
22.519

@<SCITEGIC>MOL_PROPERTY
U
SciTegic.value.DoubleValue
71.429

@<SCITEGIC>MOL_PROPERTY
W
SciTegic.value.DoubleValue
-48.910

@<SCITEGIC>MOL_PROPERTY
W(PB)
SciTegic.value.DoubleValue
-51.185

@<SCITEGIC>MOL_PROPERTY
W(SA)
SciTegic.value.DoubleValue
2.274

@<SCITEGIC>MOL_PROPERTY
Valence
SciTegic.value.DoubleValue
2.501

@<SCITEGIC>MOL_PROPERTY
Coulomb
SciTegic.value.DoubleValue
68.364

@<SCITEGIC>MOL_PROPERTY
VdW
SciTegic.value.DoubleValue
0.564

@<SCITEGIC>MOL_PROPERTY
VdW6
SciTegic.value.DoubleValue
-6.586

@<SCITEGIC>MOL_PROPERTY
VdW12
SciTegic.value.DoubleValue
7.150

@<SCITEGIC>MOL_PROPERTY
Bond
SciTegic.value.DoubleValue
0.197

@<SCITEGIC>MOL_PROPERTY
Angle
SciTegic.value.DoubleValue
0.716

@<SCITEGIC>MOL_PROPERTY
Pdih
SciTegic.value.DoubleValue
1.587

@<SCITEGIC>MOL_PROPERTY
Idih
SciTegic.value.DoubleValue
0.000

@<SCITEGIC>MOL_PROPERTY
Tether
SciTegic.value.DoubleValue
0.000

@<TRIPOS>MOLECULE
guest-s12_vm2.mol2 : vm2 ligand conformer 21
          26          25           1
SMALL
USER_CHARGES
 
@<TRIPOS>ATOM
       1    N1      20.041506   18.797040   26.429983 N.4        1 MOL1        -0.4857
       2    H1      20.450288   17.849868   26.415210 H          1 MOL1         0.3650
       3    H2      19.459386   18.822337   27.282314 H          1 MOL1         0.3650
       4    C1      19.162962   19.009333   25.208337 C.3        1 MOL1         0.0209
       5    H3      18.783112   20.033571   25.240668 H          1 MOL1         0.0967
       6    H4      18.312099   18.329247   25.298721 H          1 MOL1         0.0967
       7    C2      19.867454   18.753549   23.860403 C.3        1 MOL1        -0.1378
       8    H5      20.705403   19.452301   23.750472 H          1 MOL1         0.0993
       9    H6      20.288124   17.739375   23.856670 H          1 MOL1         0.0993
      10    C3      18.886618   18.914808   22.675031 C.3        1 MOL1        -0.1338
      11    H7      18.502192   19.943970   22.649799 H          1 MOL1         0.0993
      12    H8      18.016027   18.265172   22.841654 H          1 MOL1         0.0993
      13    C4      19.508579   18.559111   21.301922 C.3        1 MOL1        -0.1338
      14    H9      19.877299   17.524218   21.321344 H          1 MOL1         0.0993
      15    H10     18.714870   18.588437   20.542574 H          1 MOL1         0.0993
      16    C5      20.649852   19.511585   20.872387 C.3        1 MOL1        -0.1313
      17    H11     21.490014   19.439020   21.575651 H          1 MOL1         0.0993
      18    H12     20.296851   20.551875   20.903623 H          1 MOL1         0.0993
      19    C6      21.158006   19.186732   19.451378 C.3        1 MOL1        -0.2328
      20    H13     21.545727   18.161167   19.395740 H          1 MOL1         0.1004
      21    H14     21.968404   19.869134   19.163972 H          1 MOL1         0.1004
      22    H15     20.353952   19.288822   18.710925 H          1 MOL1         0.1004
      23    C7      21.133022   19.857843   26.517559 C.3        1 MOL1        -0.0781
      24    H16     21.717497   19.694612   27.425767 H          1 MOL1         0.0978
      25    H17     21.783591   19.780852   25.644146 H          1 MOL1         0.0978
      26    H18     20.670472   20.846711   26.549723 H          1 MOL1         0.0978
@<TRIPOS>BOND
    1     1     2    1
    2     1     3    1
    3     1     4    1
    4     4     5    1
    5     4     6    1
    6     4     7    1
    7     7     8    1
    8     7     9    1
    9     7    10    1
   10    10    11    1
   11    10    12    1
   12    10    13    1
   13    13    14    1
   14    13    15    1
   15    13    16    1
   16    16    17    1
   17    16    18    1
   18    16    19    1
   19    19    20    1
   20    19    21    1
   21    19    22    1
   22     1    23    1
   23    23    24    1
   24    23    25    1
   25    23    26    1
@<TRIPOS>SUBSTRUCTURE
       1 MOL1            1 RESIDUE      1      MOL     
@<SCITEGIC>MOL_PROPERTY
VM2 Rank
SciTegic.value.IntegerValue
21

@<SCITEGIC>MOL_PROPERTY
Conf_Id
SciTegic.value.IntegerValue
1290

@<SCITEGIC>MOL_PROPERTY
Probability
SciTegic.value.DoubleValue
1.34

@<SCITEGIC>MOL_PROPERTY
Sum Probability
SciTegic.value.DoubleValue
52.32

@<SCITEGIC>MOL_PROPERTY
Delta G
SciTegic.value.DoubleValue
0.978

@<SCITEGIC>MOL_PROPERTY
G
SciTegic.value.DoubleValue
76.444

@<SCITEGIC>MOL_PROPERTY
E
SciTegic.value.DoubleValue
44.013

@<SCITEGIC>MOL_PROPERTY
-TS
SciTegic.value.DoubleValue
32.432

@<SCITEGIC>MOL_PROPERTY
U+W
SciTegic.value.DoubleValue
22.551

@<SCITEGIC>MOL_PROPERTY
U
SciTegic.value.DoubleValue
71.707

@<SCITEGIC>MOL_PROPERTY
W
SciTegic.value.DoubleValue
-49.156

@<SCITEGIC>MOL_PROPERTY
W(PB)
SciTegic.value.DoubleValue
-51.438

@<SCITEGIC>MOL_PROPERTY
W(SA)
SciTegic.value.DoubleValue
2.281

@<SCITEGIC>MOL_PROPERTY
Valence
SciTegic.value.DoubleValue
2.541

@<SCITEGIC>MOL_PROPERTY
Coulomb
SciTegic.value.DoubleValue
68.632

@<SCITEGIC>MOL_PROPERTY
VdW
SciTegic.value.DoubleValue
0.535

@<SCITEGIC>MOL_PROPERTY
VdW6
SciTegic.value.DoubleValue
-6.648

@<SCITEGIC>MOL_PROPERTY
VdW12
SciTegic.value.DoubleValue
7.183

@<SCITEGIC>MOL_PROPERTY
Bond
SciTegic.value.DoubleValue
0.201

@<SCITEGIC>MOL_PROPERTY
Angle
SciTegic.value.DoubleValue
0.741

@<SCITEGIC>MOL_PROPERTY
Pdih
SciTegic.value.DoubleValue
1.599

@<SCITEGIC>MOL_PROPERTY
Idih
SciTegic.value.DoubleValue
0.000

@<SCITEGIC>MOL_PROPERTY
Tether
SciTegic.value.DoubleValue
0.000

@<TRIPOS>MOLECULE
guest-s12_vm2.mol2 : vm2 ligand conformer 22
          26          25           1
SMALL
USER_CHARGES
 
@<TRIPOS>ATOM
       1    N1      19.382671   18.766904   26.319850 N.4        1 MOL1        -0.4857
       2    H1      18.847649   17.925969   26.053404 H          1 MOL1         0.3650
       3    H2      18.852005   19.183397   27.101456 H          1 MOL1         0.3650
       4    C1      19.432655   19.747548   25.160042 C.3        1 MOL1         0.0209
       5    H3      20.037465   20.603727   25.469151 H          1 MOL1         0.0967
       6    H4      18.411934   20.098233   24.987355 H          1 MOL1         0.0967
       7    C2      19.988684   19.159231   23.847281 C.3        1 MOL1        -0.1378
       8    H5      21.025782   18.832715   23.997258 H          1 MOL1         0.0993
       9    H6      19.404323   18.270021   23.580201 H          1 MOL1         0.0993
      10    C3      19.935361   20.196371   22.700720 C.3        1 MOL1        -0.1338
      11    H7      20.454774   21.109901   23.022305 H          1 MOL1         0.0993
      12    H8      18.892422   20.485963   22.511004 H          1 MOL1         0.0993
      13    C4      20.583990   19.700439   21.384643 C.3        1 MOL1        -0.1338
      14    H9      20.604026   20.535356   20.670533 H          1 MOL1         0.0993
      15    H10     21.632530   19.429227   21.569966 H          1 MOL1         0.0993
      16    C5      19.842294   18.505475   20.739618 C.3        1 MOL1        -0.1313
      17    H11     18.781537   18.757558   20.601637 H          1 MOL1         0.0993
      18    H12     19.878361   17.632469   21.404673 H          1 MOL1         0.0993
      19    C6      20.457904   18.121705   19.376986 C.3        1 MOL1        -0.2328
      20    H13     20.402976   18.958511   18.668515 H          1 MOL1         0.1004
      21    H14     19.922280   17.271419   18.935237 H          1 MOL1         0.1004
      22    H15     21.512029   17.835385   19.486744 H          1 MOL1         0.1004
      23    C7      20.784441   18.392326   26.787861 C.3        1 MOL1        -0.0781
      24    H16     21.316281   17.893883   25.974996 H          1 MOL1         0.0978
      25    H17     21.319145   19.298647   27.080295 H          1 MOL1         0.0978
      26    H18     20.706910   17.717792   27.643479 H          1 MOL1         0.0978
@<TRIPOS>BOND
    1     1     2    1
    2     1     3    1
    3     1     4    1
    4     4     5    1
    5     4     6    1
    6     4     7    1
    7     7     8    1
    8     7     9    1
    9     7    10    1
   10    10    11    1
   11    10    12    1
   12    10    13    1
   13    13    14    1
   14    13    15    1
   15    13    16    1
   16    16    17    1
   17    16    18    1
   18    16    19    1
   19    19    20    1
   20    19    21    1
   21    19    22    1
   22     1    23    1
   23    23    24    1
   24    23    25    1
   25    23    26    1
@<TRIPOS>SUBSTRUCTURE
       1 MOL1            1 RESIDUE      1      MOL     
@<SCITEGIC>MOL_PROPERTY
VM2 Rank
SciTegic.value.IntegerValue
22

@<SCITEGIC>MOL_PROPERTY
Conf_Id
SciTegic.value.IntegerValue
1360

@<SCITEGIC>MOL_PROPERTY
Probability
SciTegic.value.DoubleValue
1.32

@<SCITEGIC>MOL_PROPERTY
Sum Probability
SciTegic.value.DoubleValue
53.64

@<SCITEGIC>MOL_PROPERTY
Delta G
SciTegic.value.DoubleValue
0.988

@<SCITEGIC>MOL_PROPERTY
G
SciTegic.value.DoubleValue
76.454

@<SCITEGIC>MOL_PROPERTY
E
SciTegic.value.DoubleValue
44.021

@<SCITEGIC>MOL_PROPERTY
-TS
SciTegic.value.DoubleValue
32.433

@<SCITEGIC>MOL_PROPERTY
U+W
SciTegic.value.DoubleValue
22.559

@<SCITEGIC>MOL_PROPERTY
U
SciTegic.value.DoubleValue
71.722

@<SCITEGIC>MOL_PROPERTY
W
SciTegic.value.DoubleValue
-49.163

@<SCITEGIC>MOL_PROPERTY
W(PB)
SciTegic.value.DoubleValue
-51.479

@<SCITEGIC>MOL_PROPERTY
W(SA)
SciTegic.value.DoubleValue
2.316

@<SCITEGIC>MOL_PROPERTY
Valence
SciTegic.value.DoubleValue
2.539

@<SCITEGIC>MOL_PROPERTY
Coulomb
SciTegic.value.DoubleValue
68.643

@<SCITEGIC>MOL_PROPERTY
VdW
SciTegic.value.DoubleValue
0.540

@<SCITEGIC>MOL_PROPERTY
VdW6
SciTegic.value.DoubleValue
-6.633

@<SCITEGIC>MOL_PROPERTY
VdW12
SciTegic.value.DoubleValue
7.173

@<SCITEGIC>MOL_PROPERTY
Bond
SciTegic.value.DoubleValue
0.200

@<SCITEGIC>MOL_PROPERTY
Angle
SciTegic.value.DoubleValue
0.745

@<SCITEGIC>MOL_PROPERTY
Pdih
SciTegic.value.DoubleValue
1.594

@<SCITEGIC>MOL_PROPERTY
Idih
SciTegic.value.DoubleValue
0.000

@<SCITEGIC>MOL_PROPERTY
Tether
SciTegic.value.DoubleValue
0.000

@<TRIPOS>MOLECULE
guest-s12_vm2.mol2 : vm2 ligand conformer 23
          26          25           1
SMALL
USER_CHARGES
 
@<TRIPOS>ATOM
       1    N1      20.554537   18.888532   26.361245 N.4        1 MOL1        -0.4857
       2    H1      20.932564   19.399300   27.174996 H          1 MOL1         0.3650
       3    H2      21.267984   18.177231   26.138850 H          1 MOL1         0.3650
       4    C1      20.385521   19.846521   25.193768 C.3        1 MOL1         0.0209
       5    H3      21.322083   20.400430   25.090289 H          1 MOL1         0.0967
       6    H4      19.597822   20.558102   25.453709 H          1 MOL1         0.0967
       7    C2      20.055115   19.166235   23.849645 C.3        1 MOL1        -0.1378
       8    H5      20.826543   18.417625   23.630591 H          1 MOL1         0.0993
       9    H6      19.099060   18.633014   23.929083 H          1 MOL1         0.0993
      10    C3      19.974839   20.200523   22.702079 C.3        1 MOL1        -0.1338
      11    H7      20.946939   20.699111   22.583718 H          1 MOL1         0.0993
      12    H8      19.257988   20.985843   22.979826 H          1 MOL1         0.0993
      13    C4      19.535412   19.591655   21.347491 C.3        1 MOL1        -0.1338
      14    H9      18.554362   19.109979   21.460927 H          1 MOL1         0.0993
      15    H10     19.394753   20.409856   20.627627 H          1 MOL1         0.0993
      16    C5      20.549568   18.578727   20.764759 C.3        1 MOL1        -0.1313
      17    H11     20.646581   17.712032   21.431969 H          1 MOL1         0.0993
      18    H12     21.543185   19.043783   20.699677 H          1 MOL1         0.0993
      19    C6      20.122745   18.086909   19.365131 C.3        1 MOL1        -0.2328
      20    H13     19.144589   17.589919   19.402765 H          1 MOL1         0.1004
      21    H14     20.850834   17.367629   18.968213 H          1 MOL1         0.1004
      22    H15     20.054625   18.922358   18.656204 H          1 MOL1         0.1004
      23    C7      19.230264   18.230897   26.732882 C.3        1 MOL1        -0.0781
      24    H16     18.870123   17.639870   25.888470 H          1 MOL1         0.0978
      25    H17     19.384597   17.580407   27.596673 H          1 MOL1         0.0978
      26    H18     18.501878   19.006065   26.980698 H          1 MOL1         0.0978
@<TRIPOS>BOND
    1     1     2    1
    2     1     3    1
    3     1     4    1
    4     4     5    1
    5     4     6    1
    6     4     7    1
    7     7     8    1
    8     7     9    1
    9     7    10    1
   10    10    11    1
   11    10    12    1
   12    10    13    1
   13    13    14    1
   14    13    15    1
   15    13    16    1
   16    16    17    1
   17    16    18    1
   18    16    19    1
   19    19    20    1
   20    19    21    1
   21    19    22    1
   22     1    23    1
   23    23    24    1
   24    23    25    1
   25    23    26    1
@<TRIPOS>SUBSTRUCTURE
       1 MOL1            1 RESIDUE      1      MOL     
@<SCITEGIC>MOL_PROPERTY
VM2 Rank
SciTegic.value.IntegerValue
23

@<SCITEGIC>MOL_PROPERTY
Conf_Id
SciTegic.value.IntegerValue
441

@<SCITEGIC>MOL_PROPERTY
Probability
SciTegic.value.DoubleValue
1.29

@<SCITEGIC>MOL_PROPERTY
Sum Probability
SciTegic.value.DoubleValue
54.93

@<SCITEGIC>MOL_PROPERTY
Delta G
SciTegic.value.DoubleValue
1.001

@<SCITEGIC>MOL_PROPERTY
G
SciTegic.value.DoubleValue
76.467

@<SCITEGIC>MOL_PROPERTY
E
SciTegic.value.DoubleValue
44.034

@<SCITEGIC>MOL_PROPERTY
-TS
SciTegic.value.DoubleValue
32.433

@<SCITEGIC>MOL_PROPERTY
U+W
SciTegic.value.DoubleValue
22.573

@<SCITEGIC>MOL_PROPERTY
U
SciTegic.value.DoubleValue
71.723

@<SCITEGIC>MOL_PROPERTY
W
SciTegic.value.DoubleValue
-49.150

@<SCITEGIC>MOL_PROPERTY
W(PB)
SciTegic.value.DoubleValue
-51.448

@<SCITEGIC>MOL_PROPERTY
W(SA)
SciTegic.value.DoubleValue
2.298

@<SCITEGIC>MOL_PROPERTY
Valence
SciTegic.value.DoubleValue
2.539

@<SCITEGIC>MOL_PROPERTY
Coulomb
SciTegic.value.DoubleValue
68.643

@<SCITEGIC>MOL_PROPERTY
VdW
SciTegic.value.DoubleValue
0.540

@<SCITEGIC>MOL_PROPERTY
VdW6
SciTegic.value.DoubleValue
-6.633

@<SCITEGIC>MOL_PROPERTY
VdW12
SciTegic.value.DoubleValue
7.173

@<SCITEGIC>MOL_PROPERTY
Bond
SciTegic.value.DoubleValue
0.200

@<SCITEGIC>MOL_PROPERTY
Angle
SciTegic.value.DoubleValue
0.745

@<SCITEGIC>MOL_PROPERTY
Pdih
SciTegic.value.DoubleValue
1.595

@<SCITEGIC>MOL_PROPERTY
Idih
SciTegic.value.DoubleValue
0.000

@<SCITEGIC>MOL_PROPERTY
Tether
SciTegic.value.DoubleValue
0.000

@<TRIPOS>MOLECULE
guest-s12_vm2.mol2 : vm2 ligand conformer 24
          26          25           1
SMALL
USER_CHARGES
 
@<TRIPOS>ATOM
       1    N1      19.896117   18.782218   26.424802 N.4        1 MOL1        -0.4857
       2    H1      20.400001   18.918315   27.315616 H          1 MOL1         0.3650
       3    H2      19.688875   17.772186   26.388177 H          1 MOL1         0.3650
       4    C1      20.797139   19.176130   25.266220 C.3        1 MOL1         0.0209
       5    H3      21.759260   18.681090   25.420853 H          1 MOL1         0.0967
       6    H4      20.959287   20.255689   25.317741 H          1 MOL1         0.0967
       7    C2      20.254936   18.793079   23.874121 C.3        1 MOL1        -0.1378
       8    H5      20.048790   17.714952   23.848220 H          1 MOL1         0.0993
       9    H6      19.303075   19.309215   23.700739 H          1 MOL1         0.0993
      10    C3      21.263682   19.157272   22.759248 C.3        1 MOL1        -0.1338
      11    H7      22.233531   18.695361   22.991088 H          1 MOL1         0.0993
      12    H8      21.433483   20.242966   22.753650 H          1 MOL1         0.0993
      13    C4      20.823960   18.693285   21.348525 C.3        1 MOL1        -0.1338
      14    H9      21.646643   18.887494   20.646443 H          1 MOL1         0.0993
      15    H10     20.671070   17.605186   21.349463 H          1 MOL1         0.0993
      16    C5      19.547001   19.399097   20.833336 C.3        1 MOL1        -0.1313
      17    H11     19.679919   20.488950   20.881739 H          1 MOL1         0.0993
      18    H12     18.691601   19.153619   21.476569 H          1 MOL1         0.0993
      19    C6      19.215520   18.988556   19.382616 C.3        1 MOL1        -0.2328
      20    H13     20.032259   19.255999   18.699530 H          1 MOL1         0.1004
      21    H14     18.306276   19.495504   19.034337 H          1 MOL1         0.1004
      22    H15     19.047488   17.906289   19.307326 H          1 MOL1         0.1004
      23    C7      18.609646   19.600362   26.428133 C.3        1 MOL1        -0.0781
      24    H16     18.007959   19.316066   27.294299 H          1 MOL1         0.0978
      25    H17     18.859788   20.661954   26.485579 H          1 MOL1         0.0978
      26    H18     18.050804   19.399987   25.511856 H          1 MOL1         0.0978
@<TRIPOS>BOND
    1     1     2    1
    2     1     3    1
    3     1     4    1
    4     4     5    1
    5     4     6    1
    6     4     7    1
    7     7     8    1
    8     7     9    1
    9     7    10    1
   10    10    11    1
   11    10    12    1
   12    10    13    1
   13    13    14    1
   14    13    15    1
   15    13    16    1
   16    16    17    1
   17    16    18    1
   18    16    19    1
   19    19    20    1
   20    19    21    1
   21    19    22    1
   22     1    23    1
   23    23    24    1
   24    23    25    1
   25    23    26    1
@<TRIPOS>SUBSTRUCTURE
       1 MOL1            1 RESIDUE      1      MOL     
@<SCITEGIC>MOL_PROPERTY
VM2 Rank
SciTegic.value.IntegerValue
24

@<SCITEGIC>MOL_PROPERTY
Conf_Id
SciTegic.value.IntegerValue
1085

@<SCITEGIC>MOL_PROPERTY
Probability
SciTegic.value.DoubleValue
1.24

@<SCITEGIC>MOL_PROPERTY
Sum Probability
SciTegic.value.DoubleValue
56.17

@<SCITEGIC>MOL_PROPERTY
Delta G
SciTegic.value.DoubleValue
1.024

@<SCITEGIC>MOL_PROPERTY
G
SciTegic.value.DoubleValue
76.490

@<SCITEGIC>MOL_PROPERTY
E
SciTegic.value.DoubleValue
44.058

@<SCITEGIC>MOL_PROPERTY
-TS
SciTegic.value.DoubleValue
32.431

@<SCITEGIC>MOL_PROPERTY
U+W
SciTegic.value.DoubleValue
22.596

@<SCITEGIC>MOL_PROPERTY
U
SciTegic.value.DoubleValue
71.707

@<SCITEGIC>MOL_PROPERTY
W
SciTegic.value.DoubleValue
-49.110

@<SCITEGIC>MOL_PROPERTY
W(PB)
SciTegic.value.DoubleValue
-51.411

@<SCITEGIC>MOL_PROPERTY
W(SA)
SciTegic.value.DoubleValue
2.301

@<SCITEGIC>MOL_PROPERTY
Valence
SciTegic.value.DoubleValue
2.540

@<SCITEGIC>MOL_PROPERTY
Coulomb
SciTegic.value.DoubleValue
68.632

@<SCITEGIC>MOL_PROPERTY
VdW
SciTegic.value.DoubleValue
0.535

@<SCITEGIC>MOL_PROPERTY
VdW6
SciTegic.value.DoubleValue
-6.648

@<SCITEGIC>MOL_PROPERTY
VdW12
SciTegic.value.DoubleValue
7.183

@<SCITEGIC>MOL_PROPERTY
Bond
SciTegic.value.DoubleValue
0.201

@<SCITEGIC>MOL_PROPERTY
Angle
SciTegic.value.DoubleValue
0.741

@<SCITEGIC>MOL_PROPERTY
Pdih
SciTegic.value.DoubleValue
1.599

@<SCITEGIC>MOL_PROPERTY
Idih
SciTegic.value.DoubleValue
0.000

@<SCITEGIC>MOL_PROPERTY
Tether
SciTegic.value.DoubleValue
0.000

@<TRIPOS>MOLECULE
guest-s12_vm2.mol2 : vm2 ligand conformer 25
          26          25           1
SMALL
USER_CHARGES
 
@<TRIPOS>ATOM
       1    N1      19.294028   18.852985   25.664550 N.4        1 MOL1        -0.4857
       2    H1      19.234924   17.823013   25.683901 H          1 MOL1         0.3650
       3    H2      18.631302   19.154451   24.934500 H          1 MOL1         0.3650
       4    C1      20.701147   19.287985   25.302871 C.3        1 MOL1         0.0209
       5    H3      21.366003   18.948902   26.101376 H          1 MOL1         0.0967
       6    H4      20.721960   20.380506   25.282636 H          1 MOL1         0.0967
       7    C2      21.200326   18.734597   23.953504 C.3        1 MOL1        -0.1378
       8    H5      22.254870   19.016141   23.832824 H          1 MOL1         0.0993
       9    H6      21.169861   17.637033   23.973148 H          1 MOL1         0.0993
      10    C3      20.386351   19.267042   22.750045 C.3        1 MOL1        -0.1338
      11    H7      20.401162   20.365806   22.756024 H          1 MOL1         0.0993
      12    H8      19.337894   18.960452   22.852003 H          1 MOL1         0.0993
      13    C4      20.949493   18.750504   21.404014 C.3        1 MOL1        -0.1338
      14    H9      22.016508   19.004915   21.339515 H          1 MOL1         0.0993
      15    H10     20.891525   17.653638   21.374289 H          1 MOL1         0.0993
      16    C5      20.229450   19.339549   20.166627 C.3        1 MOL1        -0.1313
      17    H11     20.756307   19.007152   19.261188 H          1 MOL1         0.0993
      18    H12     20.304115   20.435940   20.179825 H          1 MOL1         0.0993
      19    C6      18.745226   18.920715   20.060601 C.3        1 MOL1        -0.2328
      20    H13     18.309787   19.284838   19.121058 H          1 MOL1         0.1004
      21    H14     18.148722   19.336141   20.882121 H          1 MOL1         0.1004
      22    H15     18.640812   17.828091   20.077061 H          1 MOL1         0.1004
      23    C7      18.901979   19.436622   27.014788 C.3        1 MOL1        -0.0781
      24    H16     18.941594   20.526747   26.960010 H          1 MOL1         0.0978
      25    H17     17.887579   19.116252   27.262736 H          1 MOL1         0.0978
      26    H18     19.598277   19.078781   27.776401 H          1 MOL1         0.0978
@<TRIPOS>BOND
    1     1     2    1
    2     1     3    1
    3     1     4    1
    4     4     5    1
    5     4     6    1
    6     4     7    1
    7     7     8    1
    8     7     9    1
    9     7    10    1
   10    10    11    1
   11    10    12    1
   12    10    13    1
   13    13    14    1
   14    13    15    1
   15    13    16    1
   16    16    17    1
   17    16    18    1
   18    16    19    1
   19    19    20    1
   20    19    21    1
   21    19    22    1
   22     1    23    1
   23    23    24    1
   24    23    25    1
   25    23    26    1
@<TRIPOS>SUBSTRUCTURE
       1 MOL1            1 RESIDUE      1      MOL     
@<SCITEGIC>MOL_PROPERTY
VM2 Rank
SciTegic.value.IntegerValue
25

@<SCITEGIC>MOL_PROPERTY
Conf_Id
SciTegic.value.IntegerValue
1183

@<SCITEGIC>MOL_PROPERTY
Probability
SciTegic.value.DoubleValue
1.14

@<SCITEGIC>MOL_PROPERTY
Sum Probability
SciTegic.value.DoubleValue
57.31

@<SCITEGIC>MOL_PROPERTY
Delta G
SciTegic.value.DoubleValue
1.073

@<SCITEGIC>MOL_PROPERTY
G
SciTegic.value.DoubleValue
76.539

@<SCITEGIC>MOL_PROPERTY
E
SciTegic.value.DoubleValue
44.179

@<SCITEGIC>MOL_PROPERTY
-TS
SciTegic.value.DoubleValue
32.360

@<SCITEGIC>MOL_PROPERTY
U+W
SciTegic.value.DoubleValue
22.717

@<SCITEGIC>MOL_PROPERTY
U
SciTegic.value.DoubleValue
71.970

@<SCITEGIC>MOL_PROPERTY
W
SciTegic.value.DoubleValue
-49.253

@<SCITEGIC>MOL_PROPERTY
W(PB)
SciTegic.value.DoubleValue
-51.560

@<SCITEGIC>MOL_PROPERTY
W(SA)
SciTegic.value.DoubleValue
2.307

@<SCITEGIC>MOL_PROPERTY
Valence
SciTegic.value.DoubleValue
2.341

@<SCITEGIC>MOL_PROPERTY
Coulomb
SciTegic.value.DoubleValue
69.301

@<SCITEGIC>MOL_PROPERTY
VdW
SciTegic.value.DoubleValue
0.327

@<SCITEGIC>MOL_PROPERTY
VdW6
SciTegic.value.DoubleValue
-6.486

@<SCITEGIC>MOL_PROPERTY
VdW12
SciTegic.value.DoubleValue
6.813

@<SCITEGIC>MOL_PROPERTY
Bond
SciTegic.value.DoubleValue
0.179

@<SCITEGIC>MOL_PROPERTY
Angle
SciTegic.value.DoubleValue
0.655

@<SCITEGIC>MOL_PROPERTY
Pdih
SciTegic.value.DoubleValue
1.507

@<SCITEGIC>MOL_PROPERTY
Idih
SciTegic.value.DoubleValue
0.000

@<SCITEGIC>MOL_PROPERTY
Tether
SciTegic.value.DoubleValue
0.000

@<TRIPOS>MOLECULE
guest-s12_vm2.mol2 : vm2 ligand conformer 26
          26          25           1
SMALL
USER_CHARGES
 
@<TRIPOS>ATOM
       1    N1      20.358194   19.587577   25.807880 N.4        1 MOL1        -0.4857
       2    H1      20.508665   20.349104   25.129223 H          1 MOL1         0.3650
       3    H2      21.292730   19.189031   25.988187 H          1 MOL1         0.3650
       4    C1      19.446853   18.531689   25.212526 C.3        1 MOL1         0.0209
       5    H3      18.473076   18.992002   25.027292 H          1 MOL1         0.0967
       6    H4      19.316475   17.747882   25.963041 H          1 MOL1         0.0967
       7    C2      19.981535   17.906700   23.908849 C.3        1 MOL1        -0.1378
       8    H5      20.962522   17.450278   24.096681 H          1 MOL1         0.0993
       9    H6      19.308219   17.090935   23.613683 H          1 MOL1         0.0993
      10    C3      20.083332   18.929938   22.752649 C.3        1 MOL1        -0.1338
      11    H7      20.786854   19.729139   23.021023 H          1 MOL1         0.0993
      12    H8      19.103033   19.402124   22.604913 H          1 MOL1         0.0993
      13    C4      20.549729   18.262260   21.436479 C.3        1 MOL1        -0.1338
      14    H9      21.493897   17.730488   21.618710 H          1 MOL1         0.0993
      15    H10     19.820738   17.500024   21.128396 H          1 MOL1         0.0993
      16    C5      20.767308   19.266222   20.278365 C.3        1 MOL1        -0.1313
      17    H11     21.193762   18.727617   19.420505 H          1 MOL1         0.0993
      18    H12     21.514898   20.016380   20.571916 H          1 MOL1         0.0993
      19    C6      19.469838   19.974584   19.826405 C.3        1 MOL1        -0.2328
      20    H13     19.661626   20.602711   18.946858 H          1 MOL1         0.1004
      21    H14     19.069530   20.624781   20.614051 H          1 MOL1         0.1004
      22    H15     18.695504   19.245341   19.555093 H          1 MOL1         0.1004
      23    C7      19.751212   20.131030   27.093847 C.3        1 MOL1        -0.0781
      24    H16     20.416686   20.889899   27.511439 H          1 MOL1         0.0978
      25    H17     18.778315   20.575151   26.872105 H          1 MOL1         0.0978
      26    H18     19.630666   19.313122   27.807593 H          1 MOL1         0.0978
@<TRIPOS>BOND
    1     1     2    1
    2     1     3    1
    3     1     4    1
    4     4     5    1
    5     4     6    1
    6     4     7    1
    7     7     8    1
    8     7     9    1
    9     7    10    1
   10    10    11    1
   11    10    12    1
   12    10    13    1
   13    13    14    1
   14    13    15    1
   15    13    16    1
   16    16    17    1
   17    16    18    1
   18    16    19    1
   19    19    20    1
   20    19    21    1
   21    19    22    1
   22     1    23    1
   23    23    24    1
   24    23    25    1
   25    23    26    1
@<TRIPOS>SUBSTRUCTURE
       1 MOL1            1 RESIDUE      1      MOL     
@<SCITEGIC>MOL_PROPERTY
VM2 Rank
SciTegic.value.IntegerValue
26

@<SCITEGIC>MOL_PROPERTY
Conf_Id
SciTegic.value.IntegerValue
1119

@<SCITEGIC>MOL_PROPERTY
Probability
SciTegic.value.DoubleValue
1.14

@<SCITEGIC>MOL_PROPERTY
Sum Probability
SciTegic.value.DoubleValue
58.45

@<SCITEGIC>MOL_PROPERTY
Delta G
SciTegic.value.DoubleValue
1.077

@<SCITEGIC>MOL_PROPERTY
G
SciTegic.value.DoubleValue
76.543

@<SCITEGIC>MOL_PROPERTY
E
SciTegic.value.DoubleValue
44.176

@<SCITEGIC>MOL_PROPERTY
-TS
SciTegic.value.DoubleValue
32.367

@<SCITEGIC>MOL_PROPERTY
U+W
SciTegic.value.DoubleValue
22.714

@<SCITEGIC>MOL_PROPERTY
U
SciTegic.value.DoubleValue
71.833

@<SCITEGIC>MOL_PROPERTY
W
SciTegic.value.DoubleValue
-49.119

@<SCITEGIC>MOL_PROPERTY
W(PB)
SciTegic.value.DoubleValue
-51.436

@<SCITEGIC>MOL_PROPERTY
W(SA)
SciTegic.value.DoubleValue
2.317

@<SCITEGIC>MOL_PROPERTY
Valence
SciTegic.value.DoubleValue
2.344

@<SCITEGIC>MOL_PROPERTY
Coulomb
SciTegic.value.DoubleValue
69.159

@<SCITEGIC>MOL_PROPERTY
VdW
SciTegic.value.DoubleValue
0.330

@<SCITEGIC>MOL_PROPERTY
VdW6
SciTegic.value.DoubleValue
-6.475

@<SCITEGIC>MOL_PROPERTY
VdW12
SciTegic.value.DoubleValue
6.805

@<SCITEGIC>MOL_PROPERTY
Bond
SciTegic.value.DoubleValue
0.178

@<SCITEGIC>MOL_PROPERTY
Angle
SciTegic.value.DoubleValue
0.658

@<SCITEGIC>MOL_PROPERTY
Pdih
SciTegic.value.DoubleValue
1.508

@<SCITEGIC>MOL_PROPERTY
Idih
SciTegic.value.DoubleValue
0.000

@<SCITEGIC>MOL_PROPERTY
Tether
SciTegic.value.DoubleValue
0.000

@<TRIPOS>MOLECULE
guest-s12_vm2.mol2 : vm2 ligand conformer 27
          26          25           1
SMALL
USER_CHARGES
 
@<TRIPOS>ATOM
       1    N1      19.892112   18.939828   26.262050 N.4        1 MOL1        -0.4857
       2    H1      20.600540   18.293721   26.643492 H          1 MOL1         0.3650
       3    H2      18.986987   18.461010   26.389649 H          1 MOL1         0.3650
       4    C1      20.149517   19.187880   24.789430 C.3        1 MOL1         0.0209
       5    H3      21.118450   19.684969   24.697295 H          1 MOL1         0.0967
       6    H4      19.376467   19.869395   24.426588 H          1 MOL1         0.0967
       7    C2      20.146148   17.898995   23.945107 C.3        1 MOL1        -0.1378
       8    H5      20.897912   17.205453   24.344802 H          1 MOL1         0.0993
       9    H6      19.173761   17.397659   24.040314 H          1 MOL1         0.0993
      10    C3      20.450783   18.164208   22.451838 C.3        1 MOL1        -0.1338
      11    H7      20.513657   17.200489   21.927895 H          1 MOL1         0.0993
      12    H8      21.440678   18.631610   22.365131 H          1 MOL1         0.0993
      13    C4      19.381515   19.050326   21.763721 C.3        1 MOL1        -0.1338
      14    H9      18.386896   18.621076   21.947640 H          1 MOL1         0.0993
      15    H10     19.374479   20.052330   22.213293 H          1 MOL1         0.0993
      16    C5      19.584533   19.181460   20.234785 C.3        1 MOL1        -0.1313
      17    H11     18.734587   19.735396   19.812138 H          1 MOL1         0.0993
      18    H12     19.563497   18.185858   19.769862 H          1 MOL1         0.0993
      19    C6      20.893712   19.907482   19.849661 C.3        1 MOL1        -0.2328
      20    H13     20.951508   20.895925   20.323612 H          1 MOL1         0.1004
      21    H14     20.946856   20.053107   18.762970 H          1 MOL1         0.1004
      22    H15     21.777701   19.330496   20.148180 H          1 MOL1         0.1004
      23    C7      19.909680   20.259821   27.020409 C.3        1 MOL1        -0.0781
      24    H16     19.130711   20.913483   26.621802 H          1 MOL1         0.0978
      25    H17     19.723265   20.067062   28.079293 H          1 MOL1         0.0978
      26    H18     20.887196   20.731428   26.897898 H          1 MOL1         0.0978
@<TRIPOS>BOND
    1     1     2    1
    2     1     3    1
    3     1     4    1
    4     4     5    1
    5     4     6    1
    6     4     7    1
    7     7     8    1
    8     7     9    1
    9     7    10    1
   10    10    11    1
   11    10    12    1
   12    10    13    1
   13    13    14    1
   14    13    15    1
   15    13    16    1
   16    16    17    1
   17    16    18    1
   18    16    19    1
   19    19    20    1
   20    19    21    1
   21    19    22    1
   22     1    23    1
   23    23    24    1
   24    23    25    1
   25    23    26    1
@<TRIPOS>SUBSTRUCTURE
       1 MOL1            1 RESIDUE      1      MOL     
@<SCITEGIC>MOL_PROPERTY
VM2 Rank
SciTegic.value.IntegerValue
27

@<SCITEGIC>MOL_PROPERTY
Conf_Id
SciTegic.value.IntegerValue
200

@<SCITEGIC>MOL_PROPERTY
Probability
SciTegic.value.DoubleValue
1.12

@<SCITEGIC>MOL_PROPERTY
Sum Probability
SciTegic.value.DoubleValue
59.57

@<SCITEGIC>MOL_PROPERTY
Delta G
SciTegic.value.DoubleValue
1.085

@<SCITEGIC>MOL_PROPERTY
G
SciTegic.value.DoubleValue
76.551

@<SCITEGIC>MOL_PROPERTY
E
SciTegic.value.DoubleValue
44.172

@<SCITEGIC>MOL_PROPERTY
-TS
SciTegic.value.DoubleValue
32.379

@<SCITEGIC>MOL_PROPERTY
U+W
SciTegic.value.DoubleValue
22.710

@<SCITEGIC>MOL_PROPERTY
U
SciTegic.value.DoubleValue
71.734

@<SCITEGIC>MOL_PROPERTY
W
SciTegic.value.DoubleValue
-49.024

@<SCITEGIC>MOL_PROPERTY
W(PB)
SciTegic.value.DoubleValue
-51.338

@<SCITEGIC>MOL_PROPERTY
W(SA)
SciTegic.value.DoubleValue
2.314

@<SCITEGIC>MOL_PROPERTY
Valence
SciTegic.value.DoubleValue
2.508

@<SCITEGIC>MOL_PROPERTY
Coulomb
SciTegic.value.DoubleValue
68.926

@<SCITEGIC>MOL_PROPERTY
VdW
SciTegic.value.DoubleValue
0.300

@<SCITEGIC>MOL_PROPERTY
VdW6
SciTegic.value.DoubleValue
-6.530

@<SCITEGIC>MOL_PROPERTY
VdW12
SciTegic.value.DoubleValue
6.830

@<SCITEGIC>MOL_PROPERTY
Bond
SciTegic.value.DoubleValue
0.185

@<SCITEGIC>MOL_PROPERTY
Angle
SciTegic.value.DoubleValue
0.693

@<SCITEGIC>MOL_PROPERTY
Pdih
SciTegic.value.DoubleValue
1.630

@<SCITEGIC>MOL_PROPERTY
Idih
SciTegic.value.DoubleValue
0.000

@<SCITEGIC>MOL_PROPERTY
Tether
SciTegic.value.DoubleValue
0.000

@<TRIPOS>MOLECULE
guest-s12_vm2.mol2 : vm2 ligand conformer 28
          26          25           1
SMALL
USER_CHARGES
 
@<TRIPOS>ATOM
       1    N1      20.668738   18.993339   25.713215 N.4        1 MOL1        -0.4857
       2    H1      21.306403   19.427579   25.029198 H          1 MOL1         0.3650
       3    H2      20.933057   17.996395   25.744050 H          1 MOL1         0.3650
       4    C1      19.231617   19.137879   25.250818 C.3        1 MOL1         0.0209
       5    H3      18.992135   20.203818   25.221397 H          1 MOL1         0.0967
       6    H4      18.594673   18.665829   26.003210 H          1 MOL1         0.0967
       7    C2      18.950146   18.504822   23.873784 C.3        1 MOL1        -0.1378
       8    H5      19.200031   17.435876   23.903345 H          1 MOL1         0.0993
       9    H6      17.871578   18.568616   23.677530 H          1 MOL1         0.0993
      10    C3      19.722176   19.199190   22.726529 C.3        1 MOL1        -0.1338
      11    H7      20.801162   19.109707   22.903832 H          1 MOL1         0.0993
      12    H8      19.485605   20.272298   22.723655 H          1 MOL1         0.0993
      13    C4      19.370491   18.589354   21.348067 C.3        1 MOL1        -0.1338
      14    H9      19.650462   17.526971   21.330276 H          1 MOL1         0.0993
      15    H10     18.281282   18.623760   21.207184 H          1 MOL1         0.0993
      16    C5      20.041763   19.320405   20.159991 C.3        1 MOL1        -0.1313
      17    H11     19.746622   20.379043   20.160057 H          1 MOL1         0.0993
      18    H12     19.657615   18.894985   19.222263 H          1 MOL1         0.0993
      19    C6      21.583681   19.210517   20.161244 C.3        1 MOL1        -0.2328
      20    H13     22.001411   19.661686   19.251913 H          1 MOL1         0.1004
      21    H14     21.905060   18.161366   20.192864 H          1 MOL1         0.1004
      22    H15     22.025002   19.731957   21.019513 H          1 MOL1         0.1004
      23    C7      20.839388   19.634494   27.083352 C.3        1 MOL1        -0.0781
      24    H16     20.178119   19.138024   27.796920 H          1 MOL1         0.0978
      25    H17     21.877686   19.523790   27.403979 H          1 MOL1         0.0978
      26    H18     20.584414   20.694529   27.018109 H          1 MOL1         0.0978
@<TRIPOS>BOND
    1     1     2    1
    2     1     3    1
    3     1     4    1
    4     4     5    1
    5     4     6    1
    6     4     7    1
    7     7     8    1
    8     7     9    1
    9     7    10    1
   10    10    11    1
   11    10    12    1
   12    10    13    1
   13    13    14    1
   14    13    15    1
   15    13    16    1
   16    16    17    1
   17    16    18    1
   18    16    19    1
   19    19    20    1
   20    19    21    1
   21    19    22    1
   22     1    23    1
   23    23    24    1
   24    23    25    1
   25    23    26    1
@<TRIPOS>SUBSTRUCTURE
       1 MOL1            1 RESIDUE      1      MOL     
@<SCITEGIC>MOL_PROPERTY
VM2 Rank
SciTegic.value.IntegerValue
28

@<SCITEGIC>MOL_PROPERTY
Conf_Id
SciTegic.value.IntegerValue
834

@<SCITEGIC>MOL_PROPERTY
Probability
SciTegic.value.DoubleValue
1.12

@<SCITEGIC>MOL_PROPERTY
Sum Probability
SciTegic.value.DoubleValue
60.69

@<SCITEGIC>MOL_PROPERTY
Delta G
SciTegic.value.DoubleValue
1.085

@<SCITEGIC>MOL_PROPERTY
G
SciTegic.value.DoubleValue
76.551

@<SCITEGIC>MOL_PROPERTY
E
SciTegic.value.DoubleValue
44.191

@<SCITEGIC>MOL_PROPERTY
-TS
SciTegic.value.DoubleValue
32.360

@<SCITEGIC>MOL_PROPERTY
U+W
SciTegic.value.DoubleValue
22.729

@<SCITEGIC>MOL_PROPERTY
U
SciTegic.value.DoubleValue
71.970

@<SCITEGIC>MOL_PROPERTY
W
SciTegic.value.DoubleValue
-49.241

@<SCITEGIC>MOL_PROPERTY
W(PB)
SciTegic.value.DoubleValue
-51.540

@<SCITEGIC>MOL_PROPERTY
W(SA)
SciTegic.value.DoubleValue
2.299

@<SCITEGIC>MOL_PROPERTY
Valence
SciTegic.value.DoubleValue
2.341

@<SCITEGIC>MOL_PROPERTY
Coulomb
SciTegic.value.DoubleValue
69.301

@<SCITEGIC>MOL_PROPERTY
VdW
SciTegic.value.DoubleValue
0.328

@<SCITEGIC>MOL_PROPERTY
VdW6
SciTegic.value.DoubleValue
-6.486

@<SCITEGIC>MOL_PROPERTY
VdW12
SciTegic.value.DoubleValue
6.814

@<SCITEGIC>MOL_PROPERTY
Bond
SciTegic.value.DoubleValue
0.179

@<SCITEGIC>MOL_PROPERTY
Angle
SciTegic.value.DoubleValue
0.655

@<SCITEGIC>MOL_PROPERTY
Pdih
SciTegic.value.DoubleValue
1.507

@<SCITEGIC>MOL_PROPERTY
Idih
SciTegic.value.DoubleValue
0.000

@<SCITEGIC>MOL_PROPERTY
Tether
SciTegic.value.DoubleValue
0.000

@<TRIPOS>MOLECULE
guest-s12_vm2.mol2 : vm2 ligand conformer 29
          26          25           1
SMALL
USER_CHARGES
 
@<TRIPOS>ATOM
       1    N1      19.471431   19.497818   25.776431 N.4        1 MOL1        -0.4857
       2    H1      18.625285   18.919007   25.893569 H          1 MOL1         0.3650
       3    H2      19.219553   20.218631   25.083519 H          1 MOL1         0.3650
       4    C1      20.615137   18.649975   25.253946 C.3        1 MOL1         0.0209
       5    H3      20.846817   17.902820   26.017298 H          1 MOL1         0.0967
       6    H4      21.487610   19.297192   25.134190 H          1 MOL1         0.0967
       7    C2      20.309138   17.939875   23.920454 C.3        1 MOL1        -0.1378
       8    H5      21.151148   17.277551   23.679007 H          1 MOL1         0.0993
       9    H6      19.428695   17.294965   24.042288 H          1 MOL1         0.0993
      10    C3      20.085840   18.930197   22.752729 C.3        1 MOL1        -0.1338
      11    H7      20.959665   19.590101   22.670707 H          1 MOL1         0.0993
      12    H8      19.219527   19.570461   22.965460 H          1 MOL1         0.0993
      13    C4      19.855951   18.192014   21.411885 C.3        1 MOL1        -0.1338
      14    H9      20.742534   17.593337   21.161079 H          1 MOL1         0.0993
      15    H10     19.026941   17.480722   21.531271 H          1 MOL1         0.0993
      16    C5      19.523526   19.140271   20.234257 C.3        1 MOL1        -0.1313
      17    H11     18.622169   19.723457   20.469314 H          1 MOL1         0.0993
      18    H12     19.274782   18.533286   19.352452 H          1 MOL1         0.0993
      19    C6      20.681331   20.097256   19.869375 C.3        1 MOL1        -0.2328
      20    H13     20.429842   20.680475   18.974089 H          1 MOL1         0.1004
      21    H14     21.603079   19.539757   19.658251 H          1 MOL1         0.1004
      22    H15     20.887092   20.808845   20.678504 H          1 MOL1         0.1004
      23    C7      19.865645   20.142594   27.097924 C.3        1 MOL1        -0.0781
      24    H16     20.097105   19.360304   27.824137 H          1 MOL1         0.0978
      25    H17     20.743066   20.774026   26.941824 H          1 MOL1         0.0978
      26    H18     19.034131   20.749913   27.462438 H          1 MOL1         0.0978
@<TRIPOS>BOND
    1     1     2    1
    2     1     3    1
    3     1     4    1
    4     4     5    1
    5     4     6    1
    6     4     7    1
    7     7     8    1
    8     7     9    1
    9     7    10    1
   10    10    11    1
   11    10    12    1
   12    10    13    1
   13    13    14    1
   14    13    15    1
   15    13    16    1
   16    16    17    1
   17    16    18    1
   18    16    19    1
   19    19    20    1
   20    19    21    1
   21    19    22    1
   22     1    23    1
   23    23    24    1
   24    23    25    1
   25    23    26    1
@<TRIPOS>SUBSTRUCTURE
       1 MOL1            1 RESIDUE      1      MOL     
@<SCITEGIC>MOL_PROPERTY
VM2 Rank
SciTegic.value.IntegerValue
29

@<SCITEGIC>MOL_PROPERTY
Conf_Id
SciTegic.value.IntegerValue
249

@<SCITEGIC>MOL_PROPERTY
Probability
SciTegic.value.DoubleValue
1.07

@<SCITEGIC>MOL_PROPERTY
Sum Probability
SciTegic.value.DoubleValue
61.77

@<SCITEGIC>MOL_PROPERTY
Delta G
SciTegic.value.DoubleValue
1.110

@<SCITEGIC>MOL_PROPERTY
G
SciTegic.value.DoubleValue
76.576

@<SCITEGIC>MOL_PROPERTY
E
SciTegic.value.DoubleValue
44.209

@<SCITEGIC>MOL_PROPERTY
-TS
SciTegic.value.DoubleValue
32.367

@<SCITEGIC>MOL_PROPERTY
U+W
SciTegic.value.DoubleValue
22.747

@<SCITEGIC>MOL_PROPERTY
U
SciTegic.value.DoubleValue
71.833

@<SCITEGIC>MOL_PROPERTY
W
SciTegic.value.DoubleValue
-49.086

@<SCITEGIC>MOL_PROPERTY
W(PB)
SciTegic.value.DoubleValue
-51.406

@<SCITEGIC>MOL_PROPERTY
W(SA)
SciTegic.value.DoubleValue
2.321

@<SCITEGIC>MOL_PROPERTY
Valence
SciTegic.value.DoubleValue
2.344

@<SCITEGIC>MOL_PROPERTY
Coulomb
SciTegic.value.DoubleValue
69.159

@<SCITEGIC>MOL_PROPERTY
VdW
SciTegic.value.DoubleValue
0.330

@<SCITEGIC>MOL_PROPERTY
VdW6
SciTegic.value.DoubleValue
-6.475

@<SCITEGIC>MOL_PROPERTY
VdW12
SciTegic.value.DoubleValue
6.805

@<SCITEGIC>MOL_PROPERTY
Bond
SciTegic.value.DoubleValue
0.178

@<SCITEGIC>MOL_PROPERTY
Angle
SciTegic.value.DoubleValue
0.658

@<SCITEGIC>MOL_PROPERTY
Pdih
SciTegic.value.DoubleValue
1.508

@<SCITEGIC>MOL_PROPERTY
Idih
SciTegic.value.DoubleValue
0.000

@<SCITEGIC>MOL_PROPERTY
Tether
SciTegic.value.DoubleValue
0.000

@<TRIPOS>MOLECULE
guest-s12_vm2.mol2 : vm2 ligand conformer 30
          26          25           1
SMALL
USER_CHARGES
 
@<TRIPOS>ATOM
       1    N1      20.425895   19.610396   25.809276 N.4        1 MOL1        -0.4857
       2    H1      20.077885   20.465857   25.350710 H          1 MOL1         0.3650
       3    H2      21.437188   19.579776   25.606878 H          1 MOL1         0.3650
       4    C1      19.739635   18.390716   25.225130 C.3        1 MOL1         0.0209
       5    H3      18.672818   18.463441   25.451071 H          1 MOL1         0.0967
       6    H4      20.137747   17.511117   25.737409 H          1 MOL1         0.0967
       7    C2      19.938146   18.230602   23.705037 C.3        1 MOL1        -0.1378
       8    H5      21.011476   18.156852   23.489305 H          1 MOL1         0.0993
       9    H6      19.488284   17.278134   23.394903 H          1 MOL1         0.0993
      10    C3      19.299495   19.387686   22.896452 C.3        1 MOL1        -0.1338
      11    H7      19.802395   20.335318   23.131224 H          1 MOL1         0.0993
      12    H8      18.252917   19.506575   23.209941 H          1 MOL1         0.0993
      13    C4      19.329729   19.159949   21.364973 C.3        1 MOL1        -0.1338
      14    H9      18.806801   18.224927   21.120806 H          1 MOL1         0.0993
      15    H10     18.760198   19.965845   20.881638 H          1 MOL1         0.0993
      16    C5      20.758571   19.128716   20.772132 C.3        1 MOL1        -0.1313
      17    H11     21.322746   18.282402   21.185969 H          1 MOL1         0.0993
      18    H12     21.299080   20.042079   21.057406 H          1 MOL1         0.0993
      19    C6      20.734002   19.009008   19.233287 C.3        1 MOL1        -0.2328
      20    H13     20.225621   18.088805   18.917090 H          1 MOL1         0.1004
      21    H14     21.754653   18.985446   18.829881 H          1 MOL1         0.1004
      22    H15     20.212288   19.861249   18.778659 H          1 MOL1         0.1004
      23    C7      20.182526   19.672927   27.310715 C.3        1 MOL1        -0.0781
      24    H16     20.586778   18.772164   27.777769 H          1 MOL1         0.0978
      25    H17     20.681229   20.555223   27.718109 H          1 MOL1         0.0978
      26    H18     19.108394   19.736789   27.498071 H          1 MOL1         0.0978
@<TRIPOS>BOND
    1     1     2    1
    2     1     3    1
    3     1     4    1
    4     4     5    1
    5     4     6    1
    6     4     7    1
    7     7     8    1
    8     7     9    1
    9     7    10    1
   10    10    11    1
   11    10    12    1
   12    10    13    1
   13    13    14    1
   14    13    15    1
   15    13    16    1
   16    16    17    1
   17    16    18    1
   18    16    19    1
   19    19    20    1
   20    19    21    1
   21    19    22    1
   22     1    23    1
   23    23    24    1
   24    23    25    1
   25    23    26    1
@<TRIPOS>SUBSTRUCTURE
       1 MOL1            1 RESIDUE      1      MOL     
@<SCITEGIC>MOL_PROPERTY
VM2 Rank
SciTegic.value.IntegerValue
30

@<SCITEGIC>MOL_PROPERTY
Conf_Id
SciTegic.value.IntegerValue
778

@<SCITEGIC>MOL_PROPERTY
Probability
SciTegic.value.DoubleValue
1.06

@<SCITEGIC>MOL_PROPERTY
Sum Probability
SciTegic.value.DoubleValue
62.83

@<SCITEGIC>MOL_PROPERTY
Delta G
SciTegic.value.DoubleValue
1.119

@<SCITEGIC>MOL_PROPERTY
G
SciTegic.value.DoubleValue
76.585

@<SCITEGIC>MOL_PROPERTY
E
SciTegic.value.DoubleValue
44.219

@<SCITEGIC>MOL_PROPERTY
-TS
SciTegic.value.DoubleValue
32.365

@<SCITEGIC>MOL_PROPERTY
U+W
SciTegic.value.DoubleValue
22.758

@<SCITEGIC>MOL_PROPERTY
U
SciTegic.value.DoubleValue
71.994

@<SCITEGIC>MOL_PROPERTY
W
SciTegic.value.DoubleValue
-49.236

@<SCITEGIC>MOL_PROPERTY
W(PB)
SciTegic.value.DoubleValue
-51.536

@<SCITEGIC>MOL_PROPERTY
W(SA)
SciTegic.value.DoubleValue
2.300

@<SCITEGIC>MOL_PROPERTY
Valence
SciTegic.value.DoubleValue
2.376

@<SCITEGIC>MOL_PROPERTY
Coulomb
SciTegic.value.DoubleValue
69.315

@<SCITEGIC>MOL_PROPERTY
VdW
SciTegic.value.DoubleValue
0.303

@<SCITEGIC>MOL_PROPERTY
VdW6
SciTegic.value.DoubleValue
-6.507

@<SCITEGIC>MOL_PROPERTY
VdW12
SciTegic.value.DoubleValue
6.810

@<SCITEGIC>MOL_PROPERTY
Bond
SciTegic.value.DoubleValue
0.182

@<SCITEGIC>MOL_PROPERTY
Angle
SciTegic.value.DoubleValue
0.660

@<SCITEGIC>MOL_PROPERTY
Pdih
SciTegic.value.DoubleValue
1.534

@<SCITEGIC>MOL_PROPERTY
Idih
SciTegic.value.DoubleValue
0.000

@<SCITEGIC>MOL_PROPERTY
Tether
SciTegic.value.DoubleValue
0.000

@<TRIPOS>MOLECULE
guest-s12_vm2.mol2 : vm2 ligand conformer 31
          26          25           1
SMALL
USER_CHARGES
 
@<TRIPOS>ATOM
       1    N1      20.024788   18.953216   26.266769 N.4        1 MOL1        -0.4857
       2    H1      20.996169   18.664163   26.460851 H          1 MOL1         0.3650
       3    H2      19.434921   18.175794   26.602171 H          1 MOL1         0.3650
       4    C1      19.826800   19.155271   24.778023 C.3        1 MOL1         0.0209
       5    H3      20.471428   19.980179   24.465441 H          1 MOL1         0.0967
       6    H4      18.786915   19.449191   24.614717 H          1 MOL1         0.0967
       7    C2      20.147003   17.899134   23.945141 C.3        1 MOL1        -0.1378
       8    H5      21.190900   17.601724   24.111778 H          1 MOL1         0.0993
       9    H6      19.523012   17.066440   24.296086 H          1 MOL1         0.0993
      10    C3      19.900845   18.108668   22.432367 C.3        1 MOL1        -0.1338
      11    H7      18.846038   18.369308   22.273233 H          1 MOL1         0.0993
      12    H8      20.068790   17.155577   21.912142 H          1 MOL1         0.0993
      13    C4      20.816850   19.195553   21.814579 C.3        1 MOL1        -0.1338
      14    H9      20.591808   20.175535   22.256364 H          1 MOL1         0.0993
      15    H10     21.861829   18.972619   22.070831 H          1 MOL1         0.0993
      16    C5      20.699413   19.294167   20.274274 C.3        1 MOL1        -0.1313
      17    H11     20.951658   18.326167   19.819113 H          1 MOL1         0.0993
      18    H12     21.448916   20.009836   19.908286 H          1 MOL1         0.0993
      19    C6      19.301781   19.746396   19.793137 C.3        1 MOL1        -0.2328
      20    H13     19.296920   19.886092   18.704383 H          1 MOL1         0.1004
      21    H14     19.014397   20.699958   20.254789 H          1 MOL1         0.1004
      22    H15     18.532321   19.002199   20.033064 H          1 MOL1         0.1004
      23    C7      19.690520   20.237595   27.012708 C.3        1 MOL1        -0.0781
      24    H16     19.837030   20.078455   28.083386 H          1 MOL1         0.0978
      25    H17     20.349034   21.036639   26.665089 H          1 MOL1         0.0978
      26    H18     18.649482   20.505074   26.818651 H          1 MOL1         0.0978
@<TRIPOS>BOND
    1     1     2    1
    2     1     3    1
    3     1     4    1
    4     4     5    1
    5     4     6    1
    6     4     7    1
    7     7     8    1
    8     7     9    1
    9     7    10    1
   10    10    11    1
   11    10    12    1
   12    10    13    1
   13    13    14    1
   14    13    15    1
   15    13    16    1
   16    16    17    1
   17    16    18    1
   18    16    19    1
   19    19    20    1
   20    19    21    1
   21    19    22    1
   22     1    23    1
   23    23    24    1
   24    23    25    1
   25    23    26    1
@<TRIPOS>SUBSTRUCTURE
       1 MOL1            1 RESIDUE      1      MOL     
@<SCITEGIC>MOL_PROPERTY
VM2 Rank
SciTegic.value.IntegerValue
31

@<SCITEGIC>MOL_PROPERTY
Conf_Id
SciTegic.value.IntegerValue
783

@<SCITEGIC>MOL_PROPERTY
Probability
SciTegic.value.DoubleValue
1.06

@<SCITEGIC>MOL_PROPERTY
Sum Probability
SciTegic.value.DoubleValue
63.88

@<SCITEGIC>MOL_PROPERTY
Delta G
SciTegic.value.DoubleValue
1.121

@<SCITEGIC>MOL_PROPERTY
G
SciTegic.value.DoubleValue
76.587

@<SCITEGIC>MOL_PROPERTY
E
SciTegic.value.DoubleValue
44.208

@<SCITEGIC>MOL_PROPERTY
-TS
SciTegic.value.DoubleValue
32.379

@<SCITEGIC>MOL_PROPERTY
U+W
SciTegic.value.DoubleValue
22.746

@<SCITEGIC>MOL_PROPERTY
U
SciTegic.value.DoubleValue
71.734

@<SCITEGIC>MOL_PROPERTY
W
SciTegic.value.DoubleValue
-48.988

@<SCITEGIC>MOL_PROPERTY
W(PB)
SciTegic.value.DoubleValue
-51.299

@<SCITEGIC>MOL_PROPERTY
W(SA)
SciTegic.value.DoubleValue
2.311

@<SCITEGIC>MOL_PROPERTY
Valence
SciTegic.value.DoubleValue
2.508

@<SCITEGIC>MOL_PROPERTY
Coulomb
SciTegic.value.DoubleValue
68.926

@<SCITEGIC>MOL_PROPERTY
VdW
SciTegic.value.DoubleValue
0.300

@<SCITEGIC>MOL_PROPERTY
VdW6
SciTegic.value.DoubleValue
-6.530

@<SCITEGIC>MOL_PROPERTY
VdW12
SciTegic.value.DoubleValue
6.830

@<SCITEGIC>MOL_PROPERTY
Bond
SciTegic.value.DoubleValue
0.185

@<SCITEGIC>MOL_PROPERTY
Angle
SciTegic.value.DoubleValue
0.693

@<SCITEGIC>MOL_PROPERTY
Pdih
SciTegic.value.DoubleValue
1.631

@<SCITEGIC>MOL_PROPERTY
Idih
SciTegic.value.DoubleValue
0.000

@<SCITEGIC>MOL_PROPERTY
Tether
SciTegic.value.DoubleValue
0.000

@<TRIPOS>MOLECULE
guest-s12_vm2.mol2 : vm2 ligand conformer 32
          26          25           1
SMALL
USER_CHARGES
 
@<TRIPOS>ATOM
       1    N1      19.788149   19.695925   25.555174 N.4        1 MOL1        -0.4857
       2    H1      18.878090   19.613705   26.034407 H          1 MOL1         0.3650
       3    H2      19.628620   20.340489   24.766385 H          1 MOL1         0.3650
       4    C1      20.228281   18.341169   25.035898 C.3        1 MOL1         0.0209
       5    H3      20.373722   17.686913   25.899248 H          1 MOL1         0.0967
       6    H4      21.193631   18.467993   24.540247 H          1 MOL1         0.0967
       7    C2      19.224026   17.689439   24.062840 C.3        1 MOL1        -0.1378
       8    H5      19.600664   16.696885   23.782099 H          1 MOL1         0.0993
       9    H6      18.274394   17.518637   24.587087 H          1 MOL1         0.0993
      10    C3      18.959801   18.516878   22.779557 C.3        1 MOL1        -0.1338
      11    H7      18.490358   19.474478   23.041636 H          1 MOL1         0.0993
      12    H8      18.227506   17.978451   22.162046 H          1 MOL1         0.0993
      13    C4      20.237715   18.771556   21.944175 C.3        1 MOL1        -0.1338
      14    H9      20.962587   19.350709   22.531662 H          1 MOL1         0.0993
      15    H10     20.716693   17.812061   21.704652 H          1 MOL1         0.0993
      16    C5      19.926122   19.531133   20.635387 C.3        1 MOL1        -0.1313
      17    H11     19.444864   20.491275   20.868753 H          1 MOL1         0.0993
      18    H12     19.208924   18.955543   20.033465 H          1 MOL1         0.0993
      19    C6      21.201807   19.786791   19.804651 C.3        1 MOL1        -0.2328
      20    H13     20.960387   20.326163   18.879550 H          1 MOL1         0.1004
      21    H14     21.687871   18.842510   19.526666 H          1 MOL1         0.1004
      22    H15     21.925318   20.390912   20.367468 H          1 MOL1         0.1004
      23    C7      20.842100   20.257108   26.499318 C.3        1 MOL1        -0.0781
      24    H16     21.786281   20.364147   25.960826 H          1 MOL1         0.0978
      25    H17     20.512996   21.232479   26.864621 H          1 MOL1         0.0978
      26    H18     20.971318   19.572634   27.340577 H          1 MOL1         0.0978
@<TRIPOS>BOND
    1     1     2    1
    2     1     3    1
    3     1     4    1
    4     4     5    1
    5     4     6    1
    6     4     7    1
    7     7     8    1
    8     7     9    1
    9     7    10    1
   10    10    11    1
   11    10    12    1
   12    10    13    1
   13    13    14    1
   14    13    15    1
   15    13    16    1
   16    16    17    1
   17    16    18    1
   18    16    19    1
   19    19    20    1
   20    19    21    1
   21    19    22    1
   22     1    23    1
   23    23    24    1
   24    23    25    1
   25    23    26    1
@<TRIPOS>SUBSTRUCTURE
       1 MOL1            1 RESIDUE      1      MOL     
@<SCITEGIC>MOL_PROPERTY
VM2 Rank
SciTegic.value.IntegerValue
32

@<SCITEGIC>MOL_PROPERTY
Conf_Id
SciTegic.value.IntegerValue
835

@<SCITEGIC>MOL_PROPERTY
Probability
SciTegic.value.DoubleValue
1.02

@<SCITEGIC>MOL_PROPERTY
Sum Probability
SciTegic.value.DoubleValue
64.90

@<SCITEGIC>MOL_PROPERTY
Delta G
SciTegic.value.DoubleValue
1.141

@<SCITEGIC>MOL_PROPERTY
G
SciTegic.value.DoubleValue
76.607

@<SCITEGIC>MOL_PROPERTY
E
SciTegic.value.DoubleValue
44.164

@<SCITEGIC>MOL_PROPERTY
-TS
SciTegic.value.DoubleValue
32.443

@<SCITEGIC>MOL_PROPERTY
U+W
SciTegic.value.DoubleValue
22.702

@<SCITEGIC>MOL_PROPERTY
U
SciTegic.value.DoubleValue
71.905

@<SCITEGIC>MOL_PROPERTY
W
SciTegic.value.DoubleValue
-49.203

@<SCITEGIC>MOL_PROPERTY
W(PB)
SciTegic.value.DoubleValue
-51.495

@<SCITEGIC>MOL_PROPERTY
W(SA)
SciTegic.value.DoubleValue
2.292

@<SCITEGIC>MOL_PROPERTY
Valence
SciTegic.value.DoubleValue
2.125

@<SCITEGIC>MOL_PROPERTY
Coulomb
SciTegic.value.DoubleValue
69.686

@<SCITEGIC>MOL_PROPERTY
VdW
SciTegic.value.DoubleValue
0.093

@<SCITEGIC>MOL_PROPERTY
VdW6
SciTegic.value.DoubleValue
-6.766

@<SCITEGIC>MOL_PROPERTY
VdW12
SciTegic.value.DoubleValue
6.859

@<SCITEGIC>MOL_PROPERTY
Bond
SciTegic.value.DoubleValue
0.169

@<SCITEGIC>MOL_PROPERTY
Angle
SciTegic.value.DoubleValue
0.621

@<SCITEGIC>MOL_PROPERTY
Pdih
SciTegic.value.DoubleValue
1.336

@<SCITEGIC>MOL_PROPERTY
Idih
SciTegic.value.DoubleValue
0.000

@<SCITEGIC>MOL_PROPERTY
Tether
SciTegic.value.DoubleValue
0.000

@<TRIPOS>MOLECULE
guest-s12_vm2.mol2 : vm2 ligand conformer 33
          26          25           1
SMALL
USER_CHARGES
 
@<TRIPOS>ATOM
       1    N1      20.424110   18.802082   25.941104 N.4        1 MOL1        -0.4857
       2    H1      21.188981   18.140993   25.734809 H          1 MOL1         0.3650
       3    H2      19.747559   18.270282   26.510548 H          1 MOL1         0.3650
       4    C1      19.772848   19.267172   24.654341 C.3        1 MOL1         0.0209
       5    H3      20.522127   19.820336   24.082904 H          1 MOL1         0.0967
       6    H4      18.963203   19.952870   24.916394 H          1 MOL1         0.0967
       7    C2      19.217316   18.111649   23.800135 C.3        1 MOL1        -0.1378
       8    H5      20.027254   17.415712   23.547116 H          1 MOL1         0.0993
       9    H6      18.495400   17.538653   24.397075 H          1 MOL1         0.0993
      10    C3      18.517609   18.604083   22.508623 C.3        1 MOL1        -0.1338
      11    H7      17.626956   19.184690   22.786368 H          1 MOL1         0.0993
      12    H8      18.147520   17.733637   21.949456 H          1 MOL1         0.0993
      13    C4      19.403182   19.469322   21.574540 C.3        1 MOL1        -0.1338
      14    H9      18.797253   19.776563   20.710915 H          1 MOL1         0.0993
      15    H10     19.692937   20.397759   22.084734 H          1 MOL1         0.0993
      16    C5      20.667683   18.737310   21.065868 C.3        1 MOL1        -0.1313
      17    H11     20.381502   17.787899   20.592072 H          1 MOL1         0.0993
      18    H12     21.325778   18.487289   21.908701 H          1 MOL1         0.0993
      19    C6      21.455408   19.597177   20.054502 C.3        1 MOL1        -0.2328
      20    H13     22.349813   19.064351   19.706448 H          1 MOL1         0.1004
      21    H14     21.781720   20.541615   20.509194 H          1 MOL1         0.1004
      22    H15     20.842199   19.834851   19.175489 H          1 MOL1         0.1004
      23    C7      20.949843   20.001204   26.717887 C.3        1 MOL1        -0.0781
      24    H16     20.118394   20.669251   26.953175 H          1 MOL1         0.0978
      25    H17     21.415994   19.652768   27.642241 H          1 MOL1         0.0978
      26    H18     21.687412   20.528418   26.108799 H          1 MOL1         0.0978
@<TRIPOS>BOND
    1     1     2    1
    2     1     3    1
    3     1     4    1
    4     4     5    1
    5     4     6    1
    6     4     7    1
    7     7     8    1
    8     7     9    1
    9     7    10    1
   10    10    11    1
   11    10    12    1
   12    10    13    1
   13    13    14    1
   14    13    15    1
   15    13    16    1
   16    16    17    1
   17    16    18    1
   18    16    19    1
   19    19    20    1
   20    19    21    1
   21    19    22    1
   22     1    23    1
   23    23    24    1
   24    23    25    1
   25    23    26    1
@<TRIPOS>SUBSTRUCTURE
       1 MOL1            1 RESIDUE      1      MOL     
@<SCITEGIC>MOL_PROPERTY
VM2 Rank
SciTegic.value.IntegerValue
33

@<SCITEGIC>MOL_PROPERTY
Conf_Id
SciTegic.value.IntegerValue
1326

@<SCITEGIC>MOL_PROPERTY
Probability
SciTegic.value.DoubleValue
1.00

@<SCITEGIC>MOL_PROPERTY
Sum Probability
SciTegic.value.DoubleValue
65.90

@<SCITEGIC>MOL_PROPERTY
Delta G
SciTegic.value.DoubleValue
1.152

@<SCITEGIC>MOL_PROPERTY
G
SciTegic.value.DoubleValue
76.618

@<SCITEGIC>MOL_PROPERTY
E
SciTegic.value.DoubleValue
44.122

@<SCITEGIC>MOL_PROPERTY
-TS
SciTegic.value.DoubleValue
32.497

@<SCITEGIC>MOL_PROPERTY
U+W
SciTegic.value.DoubleValue
22.660

@<SCITEGIC>MOL_PROPERTY
U
SciTegic.value.DoubleValue
72.035

@<SCITEGIC>MOL_PROPERTY
W
SciTegic.value.DoubleValue
-49.376

@<SCITEGIC>MOL_PROPERTY
W(PB)
SciTegic.value.DoubleValue
-51.684

@<SCITEGIC>MOL_PROPERTY
W(SA)
SciTegic.value.DoubleValue
2.308

@<SCITEGIC>MOL_PROPERTY
Valence
SciTegic.value.DoubleValue
2.479

@<SCITEGIC>MOL_PROPERTY
Coulomb
SciTegic.value.DoubleValue
69.414

@<SCITEGIC>MOL_PROPERTY
VdW
SciTegic.value.DoubleValue
0.143

@<SCITEGIC>MOL_PROPERTY
VdW6
SciTegic.value.DoubleValue
-6.883

@<SCITEGIC>MOL_PROPERTY
VdW12
SciTegic.value.DoubleValue
7.026

@<SCITEGIC>MOL_PROPERTY
Bond
SciTegic.value.DoubleValue
0.193

@<SCITEGIC>MOL_PROPERTY
Angle
SciTegic.value.DoubleValue
0.854

@<SCITEGIC>MOL_PROPERTY
Pdih
SciTegic.value.DoubleValue
1.432

@<SCITEGIC>MOL_PROPERTY
Idih
SciTegic.value.DoubleValue
0.000

@<SCITEGIC>MOL_PROPERTY
Tether
SciTegic.value.DoubleValue
0.000

@<TRIPOS>MOLECULE
guest-s12_vm2.mol2 : vm2 ligand conformer 34
          26          25           1
SMALL
USER_CHARGES
 
@<TRIPOS>ATOM
       1    N1      20.024937   19.719777   25.563697 N.4        1 MOL1        -0.4857
       2    H1      20.107613   20.388879   24.783588 H          1 MOL1         0.3650
       3    H2      20.897200   19.817291   26.106174 H          1 MOL1         0.3650
       4    C1      19.901438   18.308229   25.024251 C.3        1 MOL1         0.0209
       5    H3      18.967408   18.243514   24.461175 H          1 MOL1         0.0967
       6    H4      19.829198   17.631916   25.879796 H          1 MOL1         0.0967
       7    C2      21.081283   17.876935   24.128667 C.3        1 MOL1        -0.1378
       8    H5      22.006744   17.895362   24.719421 H          1 MOL1         0.0993
       9    H6      20.930930   16.831202   23.829215 H          1 MOL1         0.0993
      10    C3      21.264391   18.749539   22.861260 C.3        1 MOL1        -0.1338
      11    H7      22.130856   18.372458   22.300433 H          1 MOL1         0.0993
      12    H8      21.513745   19.779676   23.148837 H          1 MOL1         0.0993
      13    C4      20.023130   18.749987   21.936566 C.3        1 MOL1        -0.1338
      14    H9      19.763170   17.715921   21.670958 H          1 MOL1         0.0993
      15    H10     19.157934   19.168791   22.467642 H          1 MOL1         0.0993
      16    C5      20.267899   19.565545   20.647410 C.3        1 MOL1        -0.1313
      17    H11     21.125879   19.148784   20.101366 H          1 MOL1         0.0993
      18    H12     20.530410   20.600741   20.907022 H          1 MOL1         0.0993
      19    C6      19.028281   19.567369   19.727518 C.3        1 MOL1        -0.2328
      20    H13     18.161179   20.011115   20.233894 H          1 MOL1         0.1004
      21    H14     18.761032   18.547062   19.422967 H          1 MOL1         0.1004
      22    H15     19.221503   20.150462   18.817746 H          1 MOL1         0.1004
      23    C7      18.816642   20.052618   26.427632 C.3        1 MOL1        -0.0781
      24    H16     17.910240   19.973111   25.823459 H          1 MOL1         0.0978
      25    H17     18.767840   19.350028   27.262440 H          1 MOL1         0.0978
      26    H18     18.918140   21.071349   26.808407 H          1 MOL1         0.0978
@<TRIPOS>BOND
    1     1     2    1
    2     1     3    1
    3     1     4    1
    4     4     5    1
    5     4     6    1
    6     4     7    1
    7     7     8    1
    8     7     9    1
    9     7    10    1
   10    10    11    1
   11    10    12    1
   12    10    13    1
   13    13    14    1
   14    13    15    1
   15    13    16    1
   16    16    17    1
   17    16    18    1
   18    16    19    1
   19    19    20    1
   20    19    21    1
   21    19    22    1
   22     1    23    1
   23    23    24    1
   24    23    25    1
   25    23    26    1
@<TRIPOS>SUBSTRUCTURE
       1 MOL1            1 RESIDUE      1      MOL     
@<SCITEGIC>MOL_PROPERTY
VM2 Rank
SciTegic.value.IntegerValue
34

@<SCITEGIC>MOL_PROPERTY
Conf_Id
SciTegic.value.IntegerValue
806

@<SCITEGIC>MOL_PROPERTY
Probability
SciTegic.value.DoubleValue
0.99

@<SCITEGIC>MOL_PROPERTY
Sum Probability
SciTegic.value.DoubleValue
66.89

@<SCITEGIC>MOL_PROPERTY
Delta G
SciTegic.value.DoubleValue
1.161

@<SCITEGIC>MOL_PROPERTY
G
SciTegic.value.DoubleValue
76.627

@<SCITEGIC>MOL_PROPERTY
E
SciTegic.value.DoubleValue
44.184

@<SCITEGIC>MOL_PROPERTY
-TS
SciTegic.value.DoubleValue
32.443

@<SCITEGIC>MOL_PROPERTY
U+W
SciTegic.value.DoubleValue
22.722

@<SCITEGIC>MOL_PROPERTY
U
SciTegic.value.DoubleValue
71.905

@<SCITEGIC>MOL_PROPERTY
W
SciTegic.value.DoubleValue
-49.182

@<SCITEGIC>MOL_PROPERTY
W(PB)
SciTegic.value.DoubleValue
-51.494

@<SCITEGIC>MOL_PROPERTY
W(SA)
SciTegic.value.DoubleValue
2.312

@<SCITEGIC>MOL_PROPERTY
Valence
SciTegic.value.DoubleValue
2.125

@<SCITEGIC>MOL_PROPERTY
Coulomb
SciTegic.value.DoubleValue
69.686

@<SCITEGIC>MOL_PROPERTY
VdW
SciTegic.value.DoubleValue
0.093

@<SCITEGIC>MOL_PROPERTY
VdW6
SciTegic.value.DoubleValue
-6.766

@<SCITEGIC>MOL_PROPERTY
VdW12
SciTegic.value.DoubleValue
6.859

@<SCITEGIC>MOL_PROPERTY
Bond
SciTegic.value.DoubleValue
0.169

@<SCITEGIC>MOL_PROPERTY
Angle
SciTegic.value.DoubleValue
0.621

@<SCITEGIC>MOL_PROPERTY
Pdih
SciTegic.value.DoubleValue
1.336

@<SCITEGIC>MOL_PROPERTY
Idih
SciTegic.value.DoubleValue
0.000

@<SCITEGIC>MOL_PROPERTY
Tether
SciTegic.value.DoubleValue
0.000

@<TRIPOS>MOLECULE
guest-s12_vm2.mol2 : vm2 ligand conformer 35
          26          25           1
SMALL
USER_CHARGES
 
@<TRIPOS>ATOM
       1    N1      19.400357   19.506349   25.772904 N.4        1 MOL1        -0.4857
       2    H1      18.432496   19.274875   25.500359 H          1 MOL1         0.3650
       3    H2      19.600901   20.417471   25.333762 H          1 MOL1         0.3650
       4    C1      20.356600   18.453338   25.247007 C.3        1 MOL1         0.0209
       5    H3      20.108151   17.508138   25.736380 H          1 MOL1         0.0967
       6    H4      21.368619   18.737020   25.546642 H          1 MOL1         0.0967
       7    C2      20.301293   18.267440   23.717919 C.3        1 MOL1        -0.1378
       8    H5      20.953622   17.426747   23.446889 H          1 MOL1         0.0993
       9    H6      19.282372   17.981491   23.428007 H          1 MOL1         0.0993
      10    C3      20.750041   19.534782   22.947859 C.3        1 MOL1        -0.1338
      11    H7      21.726939   19.858863   23.333056 H          1 MOL1         0.0993
      12    H8      20.052171   20.360651   23.140076 H          1 MOL1         0.0993
      13    C4      20.873469   19.316491   21.419682 C.3        1 MOL1        -0.1338
      14    H9      21.302260   20.223640   20.971724 H          1 MOL1         0.0993
      15    H10     21.589073   18.507084   21.219408 H          1 MOL1         0.0993
      16    C5      19.525031   19.003568   20.728433 C.3        1 MOL1        -0.1313
      17    H11     18.793685   19.787894   20.968699 H          1 MOL1         0.0993
      18    H12     19.114498   18.058354   21.107687 H          1 MOL1         0.0993
      19    C6      19.680820   18.902246   19.195970 C.3        1 MOL1        -0.2328
      20    H13     20.051476   19.845059   18.772999 H          1 MOL1         0.1004
      21    H14     18.716455   18.677292   18.722247 H          1 MOL1         0.1004
      22    H15     20.384343   18.105029   18.922649 H          1 MOL1         0.1004
      23    C7      19.520389   19.605786   27.287224 C.3        1 MOL1        -0.0781
      24    H16     19.273356   18.638943   27.731206 H          1 MOL1         0.0978
      25    H17     20.544040   19.882521   27.548943 H          1 MOL1         0.0978
      26    H18     18.827507   20.367172   27.652364 H          1 MOL1         0.0978
@<TRIPOS>BOND
    1     1     2    1
    2     1     3    1
    3     1     4    1
    4     4     5    1
    5     4     6    1
    6     4     7    1
    7     7     8    1
    8     7     9    1
    9     7    10    1
   10    10    11    1
   11    10    12    1
   12    10    13    1
   13    13    14    1
   14    13    15    1
   15    13    16    1
   16    16    17    1
   17    16    18    1
   18    16    19    1
   19    19    20    1
   20    19    21    1
   21    19    22    1
   22     1    23    1
   23    23    24    1
   24    23    25    1
   25    23    26    1
@<TRIPOS>SUBSTRUCTURE
       1 MOL1            1 RESIDUE      1      MOL     
@<SCITEGIC>MOL_PROPERTY
VM2 Rank
SciTegic.value.IntegerValue
35

@<SCITEGIC>MOL_PROPERTY
Conf_Id
SciTegic.value.IntegerValue
443

@<SCITEGIC>MOL_PROPERTY
Probability
SciTegic.value.DoubleValue
0.95

@<SCITEGIC>MOL_PROPERTY
Sum Probability
SciTegic.value.DoubleValue
67.84

@<SCITEGIC>MOL_PROPERTY
Delta G
SciTegic.value.DoubleValue
1.185

@<SCITEGIC>MOL_PROPERTY
G
SciTegic.value.DoubleValue
76.651

@<SCITEGIC>MOL_PROPERTY
E
SciTegic.value.DoubleValue
44.286

@<SCITEGIC>MOL_PROPERTY
-TS
SciTegic.value.DoubleValue
32.365

@<SCITEGIC>MOL_PROPERTY
U+W
SciTegic.value.DoubleValue
22.825

@<SCITEGIC>MOL_PROPERTY
U
SciTegic.value.DoubleValue
71.994

@<SCITEGIC>MOL_PROPERTY
W
SciTegic.value.DoubleValue
-49.169

@<SCITEGIC>MOL_PROPERTY
W(PB)
SciTegic.value.DoubleValue
-51.490

@<SCITEGIC>MOL_PROPERTY
W(SA)
SciTegic.value.DoubleValue
2.320

@<SCITEGIC>MOL_PROPERTY
Valence
SciTegic.value.DoubleValue
2.376

@<SCITEGIC>MOL_PROPERTY
Coulomb
SciTegic.value.DoubleValue
69.315

@<SCITEGIC>MOL_PROPERTY
VdW
SciTegic.value.DoubleValue
0.303

@<SCITEGIC>MOL_PROPERTY
VdW6
SciTegic.value.DoubleValue
-6.507

@<SCITEGIC>MOL_PROPERTY
VdW12
SciTegic.value.DoubleValue
6.810

@<SCITEGIC>MOL_PROPERTY
Bond
SciTegic.value.DoubleValue
0.182

@<SCITEGIC>MOL_PROPERTY
Angle
SciTegic.value.DoubleValue
0.660

@<SCITEGIC>MOL_PROPERTY
Pdih
SciTegic.value.DoubleValue
1.534

@<SCITEGIC>MOL_PROPERTY
Idih
SciTegic.value.DoubleValue
0.000

@<SCITEGIC>MOL_PROPERTY
Tether
SciTegic.value.DoubleValue
0.000

@<TRIPOS>MOLECULE
guest-s12_vm2.mol2 : vm2 ligand conformer 36
          26          25           1
SMALL
USER_CHARGES
 
@<TRIPOS>ATOM
       1    N1      19.730814   18.729346   26.026859 N.4        1 MOL1        -0.4857
       2    H1      20.116336   17.772692   26.056660 H          1 MOL1         0.3650
       3    H2      18.785452   18.633877   25.626528 H          1 MOL1         0.3650
       4    C1      20.587609   19.609614   25.137347 C.3        1 MOL1         0.0209
       5    H3      21.574860   19.682404   25.600660 H          1 MOL1         0.0967
       6    H4      20.143798   20.608233   25.121952 H          1 MOL1         0.0967
       7    C2      20.738803   19.086695   23.695054 C.3        1 MOL1        -0.1378
       8    H5      21.467472   19.724695   23.179960 H          1 MOL1         0.0993
       9    H6      21.165270   18.075017   23.714986 H          1 MOL1         0.0993
      10    C3      19.399006   19.084765   22.916330 C.3        1 MOL1        -0.1338
      11    H7      18.991781   20.104698   22.877846 H          1 MOL1         0.0993
      12    H8      18.661764   18.479073   23.459575 H          1 MOL1         0.0993
      13    C4      19.519279   18.520472   21.478934 C.3        1 MOL1        -0.1338
      14    H9      19.920154   17.498111   21.516573 H          1 MOL1         0.0993
      15    H10     18.509904   18.439127   21.052300 H          1 MOL1         0.0993
      16    C5      20.390968   19.388816   20.540559 C.3        1 MOL1        -0.1313
      17    H11     21.427192   19.417388   20.902452 H          1 MOL1         0.0993
      18    H12     20.023073   20.424393   20.544672 H          1 MOL1         0.0993
      19    C6      20.381949   18.849142   19.094273 C.3        1 MOL1        -0.2328
      20    H13     20.772791   17.824079   19.053093 H          1 MOL1         0.1004
      21    H14     21.006928   19.474187   18.443317 H          1 MOL1         0.1004
      22    H15     19.365178   18.844184   18.680341 H          1 MOL1         0.1004
      23    C7      19.659572   19.321149   27.427644 C.3        1 MOL1        -0.0781
      24    H16     19.219637   20.319399   27.373825 H          1 MOL1         0.0978
      25    H17     19.040103   18.678377   28.057108 H          1 MOL1         0.0978
      26    H18     20.667835   19.382937   27.843004 H          1 MOL1         0.0978
@<TRIPOS>BOND
    1     1     2    1
    2     1     3    1
    3     1     4    1
    4     4     5    1
    5     4     6    1
    6     4     7    1
    7     7     8    1
    8     7     9    1
    9     7    10    1
   10    10    11    1
   11    10    12    1
   12    10    13    1
   13    13    14    1
   14    13    15    1
   15    13    16    1
   16    16    17    1
   17    16    18    1
   18    16    19    1
   19    19    20    1
   20    19    21    1
   21    19    22    1
   22     1    23    1
   23    23    24    1
   24    23    25    1
   25    23    26    1
@<TRIPOS>SUBSTRUCTURE
       1 MOL1            1 RESIDUE      1      MOL     
@<SCITEGIC>MOL_PROPERTY
VM2 Rank
SciTegic.value.IntegerValue
36

@<SCITEGIC>MOL_PROPERTY
Conf_Id
SciTegic.value.IntegerValue
276

@<SCITEGIC>MOL_PROPERTY
Probability
SciTegic.value.DoubleValue
0.92

@<SCITEGIC>MOL_PROPERTY
Sum Probability
SciTegic.value.DoubleValue
68.76

@<SCITEGIC>MOL_PROPERTY
Delta G
SciTegic.value.DoubleValue
1.200

@<SCITEGIC>MOL_PROPERTY
G
SciTegic.value.DoubleValue
76.666

@<SCITEGIC>MOL_PROPERTY
E
SciTegic.value.DoubleValue
44.336

@<SCITEGIC>MOL_PROPERTY
-TS
SciTegic.value.DoubleValue
32.330

@<SCITEGIC>MOL_PROPERTY
U+W
SciTegic.value.DoubleValue
22.874

@<SCITEGIC>MOL_PROPERTY
U
SciTegic.value.DoubleValue
71.903

@<SCITEGIC>MOL_PROPERTY
W
SciTegic.value.DoubleValue
-49.029

@<SCITEGIC>MOL_PROPERTY
W(PB)
SciTegic.value.DoubleValue
-51.326

@<SCITEGIC>MOL_PROPERTY
W(SA)
SciTegic.value.DoubleValue
2.298

@<SCITEGIC>MOL_PROPERTY
Valence
SciTegic.value.DoubleValue
2.410

@<SCITEGIC>MOL_PROPERTY
Coulomb
SciTegic.value.DoubleValue
69.133

@<SCITEGIC>MOL_PROPERTY
VdW
SciTegic.value.DoubleValue
0.360

@<SCITEGIC>MOL_PROPERTY
VdW6
SciTegic.value.DoubleValue
-6.461

@<SCITEGIC>MOL_PROPERTY
VdW12
SciTegic.value.DoubleValue
6.821

@<SCITEGIC>MOL_PROPERTY
Bond
SciTegic.value.DoubleValue
0.187

@<SCITEGIC>MOL_PROPERTY
Angle
SciTegic.value.DoubleValue
0.708

@<SCITEGIC>MOL_PROPERTY
Pdih
SciTegic.value.DoubleValue
1.514

@<SCITEGIC>MOL_PROPERTY
Idih
SciTegic.value.DoubleValue
0.000

@<SCITEGIC>MOL_PROPERTY
Tether
SciTegic.value.DoubleValue
0.000

@<TRIPOS>MOLECULE
guest-s12_vm2.mol2 : vm2 ligand conformer 37
          26          25           1
SMALL
USER_CHARGES
 
@<TRIPOS>ATOM
       1    N1      19.554875   18.714218   25.910392 N.4        1 MOL1        -0.4857
       2    H1      20.282492   18.324425   26.529614 H          1 MOL1         0.3650
       3    H2      18.954012   17.915016   25.655710 H          1 MOL1         0.3650
       4    C1      20.188534   19.309210   24.669154 C.3        1 MOL1         0.0209
       5    H3      20.824420   20.141011   24.982425 H          1 MOL1         0.0967
       6    H4      19.385717   19.705508   24.042750 H          1 MOL1         0.0967
       7    C2      21.022220   18.294114   23.864128 C.3        1 MOL1        -0.1378
       8    H5      21.800440   17.872687   24.514203 H          1 MOL1         0.0993
       9    H6      20.387437   17.452194   23.559878 H          1 MOL1         0.0993
      10    C3      21.698147   18.925622   22.621389 C.3        1 MOL1        -0.1338
      11    H7      22.273035   18.150712   22.095719 H          1 MOL1         0.0993
      12    H8      22.433057   19.670564   22.956768 H          1 MOL1         0.0993
      13    C4      20.725192   19.602981   21.621423 C.3        1 MOL1        -0.1338
      14    H9      20.220571   20.451042   22.103499 H          1 MOL1         0.0993
      15    H10     21.316510   20.031361   20.800309 H          1 MOL1         0.0993
      16    C5      19.671470   18.636576   21.030418 C.3        1 MOL1        -0.1313
      17    H11     19.019157   18.254004   21.826719 H          1 MOL1         0.0993
      18    H12     20.174231   17.766966   20.584575 H          1 MOL1         0.0993
      19    C6      18.800699   19.328801   19.960216 C.3        1 MOL1        -0.2328
      20    H13     18.057598   18.630406   19.553951 H          1 MOL1         0.1004
      21    H14     19.414171   19.690604   19.124793 H          1 MOL1         0.1004
      22    H15     18.261014   20.185623   20.384225 H          1 MOL1         0.1004
      23    C7      18.746865   19.778477   26.639881 C.3        1 MOL1        -0.0781
      24    H16     18.296142   19.337328   27.531716 H          1 MOL1         0.0978
      25    H17     19.409370   20.597586   26.928155 H          1 MOL1         0.0978
      26    H18     17.963340   20.151888   25.976854 H          1 MOL1         0.0978
@<TRIPOS>BOND
    1     1     2    1
    2     1     3    1
    3     1     4    1
    4     4     5    1
    5     4     6    1
    6     4     7    1
    7     7     8    1
    8     7     9    1
    9     7    10    1
   10    10    11    1
   11    10    12    1
   12    10    13    1
   13    13    14    1
   14    13    15    1
   15    13    16    1
   16    16    17    1
   17    16    18    1
   18    16    19    1
   19    19    20    1
   20    19    21    1
   21    19    22    1
   22     1    23    1
   23    23    24    1
   24    23    25    1
   25    23    26    1
@<TRIPOS>SUBSTRUCTURE
       1 MOL1            1 RESIDUE      1      MOL     
@<SCITEGIC>MOL_PROPERTY
VM2 Rank
SciTegic.value.IntegerValue
37

@<SCITEGIC>MOL_PROPERTY
Conf_Id
SciTegic.value.IntegerValue
859

@<SCITEGIC>MOL_PROPERTY
Probability
SciTegic.value.DoubleValue
0.91

@<SCITEGIC>MOL_PROPERTY
Sum Probability
SciTegic.value.DoubleValue
69.67

@<SCITEGIC>MOL_PROPERTY
Delta G
SciTegic.value.DoubleValue
1.208

@<SCITEGIC>MOL_PROPERTY
G
SciTegic.value.DoubleValue
76.674

@<SCITEGIC>MOL_PROPERTY
E
SciTegic.value.DoubleValue
44.177

@<SCITEGIC>MOL_PROPERTY
-TS
SciTegic.value.DoubleValue
32.497

@<SCITEGIC>MOL_PROPERTY
U+W
SciTegic.value.DoubleValue
22.715

@<SCITEGIC>MOL_PROPERTY
U
SciTegic.value.DoubleValue
72.035

@<SCITEGIC>MOL_PROPERTY
W
SciTegic.value.DoubleValue
-49.320

@<SCITEGIC>MOL_PROPERTY
W(PB)
SciTegic.value.DoubleValue
-51.620

@<SCITEGIC>MOL_PROPERTY
W(SA)
SciTegic.value.DoubleValue
2.300

@<SCITEGIC>MOL_PROPERTY
Valence
SciTegic.value.DoubleValue
2.479

@<SCITEGIC>MOL_PROPERTY
Coulomb
SciTegic.value.DoubleValue
69.414

@<SCITEGIC>MOL_PROPERTY
VdW
SciTegic.value.DoubleValue
0.143

@<SCITEGIC>MOL_PROPERTY
VdW6
SciTegic.value.DoubleValue
-6.882

@<SCITEGIC>MOL_PROPERTY
VdW12
SciTegic.value.DoubleValue
7.025

@<SCITEGIC>MOL_PROPERTY
Bond
SciTegic.value.DoubleValue
0.193

@<SCITEGIC>MOL_PROPERTY
Angle
SciTegic.value.DoubleValue
0.854

@<SCITEGIC>MOL_PROPERTY
Pdih
SciTegic.value.DoubleValue
1.433

@<SCITEGIC>MOL_PROPERTY
Idih
SciTegic.value.DoubleValue
0.000

@<SCITEGIC>MOL_PROPERTY
Tether
SciTegic.value.DoubleValue
0.000

@<TRIPOS>MOLECULE
guest-s12_vm2.mol2 : vm2 ligand conformer 38
          26          25           1
SMALL
USER_CHARGES
 
@<TRIPOS>ATOM
       1    N1      20.030429   18.753286   26.305865 N.4        1 MOL1        -0.4857
       2    H1      20.820336   18.091759   26.362769 H          1 MOL1         0.3650
       3    H2      19.200593   18.215922   26.601569 H          1 MOL1         0.3650
       4    C1      19.857721   19.240275   24.881270 C.3        1 MOL1         0.0209
       5    H3      20.757489   19.796905   24.609122 H          1 MOL1         0.0967
       6    H4      19.008020   19.927351   24.862487 H          1 MOL1         0.0967
       7    C2      19.623808   18.099336   23.872253 C.3        1 MOL1        -0.1378
       8    H5      20.477425   17.408704   23.890369 H          1 MOL1         0.0993
       9    H6      18.744530   17.520407   24.184726 H          1 MOL1         0.0993
      10    C3      19.399501   18.610987   22.429441 C.3        1 MOL1        -0.1338
      11    H7      18.537933   19.292761   22.412371 H          1 MOL1         0.0993
      12    H8      19.130327   17.753496   21.799166 H          1 MOL1         0.0993
      13    C4      20.642296   19.322702   21.836230 C.3        1 MOL1        -0.1338
      14    H9      20.925477   20.165641   22.480276 H          1 MOL1         0.0993
      15    H10     21.498315   18.633879   21.834729 H          1 MOL1         0.0993
      16    C5      20.415835   19.866797   20.404606 C.3        1 MOL1        -0.1313
      17    H11     21.296749   20.453125   20.107758 H          1 MOL1         0.0993
      18    H12     19.567517   20.565492   20.402083 H          1 MOL1         0.0993
      19    C6      20.180315   18.758434   19.353033 C.3        1 MOL1        -0.2328
      20    H13     19.240296   18.222785   19.533771 H          1 MOL1         0.1004
      21    H14     20.999715   18.027991   19.358397 H          1 MOL1         0.1004
      22    H15     20.123685   19.190939   18.345726 H          1 MOL1         0.1004
      23    C7      20.258095   19.938184   27.234302 C.3        1 MOL1        -0.0781
      24    H16     21.158932   20.471155   26.922230 H          1 MOL1         0.0978
      25    H17     19.395724   20.606413   27.181883 H          1 MOL1         0.0978
      26    H18     20.380692   19.573727   28.256694 H          1 MOL1         0.0978
@<TRIPOS>BOND
    1     1     2    1
    2     1     3    1
    3     1     4    1
    4     4     5    1
    5     4     6    1
    6     4     7    1
    7     7     8    1
    8     7     9    1
    9     7    10    1
   10    10    11    1
   11    10    12    1
   12    10    13    1
   13    13    14    1
   14    13    15    1
   15    13    16    1
   16    16    17    1
   17    16    18    1
   18    16    19    1
   19    19    20    1
   20    19    21    1
   21    19    22    1
   22     1    23    1
   23    23    24    1
   24    23    25    1
   25    23    26    1
@<TRIPOS>SUBSTRUCTURE
       1 MOL1            1 RESIDUE      1      MOL     
@<SCITEGIC>MOL_PROPERTY
VM2 Rank
SciTegic.value.IntegerValue
38

@<SCITEGIC>MOL_PROPERTY
Conf_Id
SciTegic.value.IntegerValue
1517

@<SCITEGIC>MOL_PROPERTY
Probability
SciTegic.value.DoubleValue
0.90

@<SCITEGIC>MOL_PROPERTY
Sum Probability
SciTegic.value.DoubleValue
70.58

@<SCITEGIC>MOL_PROPERTY
Delta G
SciTegic.value.DoubleValue
1.214

@<SCITEGIC>MOL_PROPERTY
G
SciTegic.value.DoubleValue
76.680

@<SCITEGIC>MOL_PROPERTY
E
SciTegic.value.DoubleValue
44.334

@<SCITEGIC>MOL_PROPERTY
-TS
SciTegic.value.DoubleValue
32.346

@<SCITEGIC>MOL_PROPERTY
U+W
SciTegic.value.DoubleValue
22.873

@<SCITEGIC>MOL_PROPERTY
U
SciTegic.value.DoubleValue
71.810

@<SCITEGIC>MOL_PROPERTY
W
SciTegic.value.DoubleValue
-48.937

@<SCITEGIC>MOL_PROPERTY
W(PB)
SciTegic.value.DoubleValue
-51.228

@<SCITEGIC>MOL_PROPERTY
W(SA)
SciTegic.value.DoubleValue
2.290

@<SCITEGIC>MOL_PROPERTY
Valence
SciTegic.value.DoubleValue
2.569

@<SCITEGIC>MOL_PROPERTY
Coulomb
SciTegic.value.DoubleValue
68.877

@<SCITEGIC>MOL_PROPERTY
VdW
SciTegic.value.DoubleValue
0.364

@<SCITEGIC>MOL_PROPERTY
VdW6
SciTegic.value.DoubleValue
-6.470

@<SCITEGIC>MOL_PROPERTY
VdW12
SciTegic.value.DoubleValue
6.834

@<SCITEGIC>MOL_PROPERTY
Bond
SciTegic.value.DoubleValue
0.191

@<SCITEGIC>MOL_PROPERTY
Angle
SciTegic.value.DoubleValue
0.752

@<SCITEGIC>MOL_PROPERTY
Pdih
SciTegic.value.DoubleValue
1.626

@<SCITEGIC>MOL_PROPERTY
Idih
SciTegic.value.DoubleValue
0.000

@<SCITEGIC>MOL_PROPERTY
Tether
SciTegic.value.DoubleValue
0.000

@<TRIPOS>MOLECULE
guest-s12_vm2.mol2 : vm2 ligand conformer 39
          26          25           1
SMALL
USER_CHARGES
 
@<TRIPOS>ATOM
       1    N1      19.924382   18.742440   26.302082 N.4        1 MOL1        -0.4857
       2    H1      20.822690   18.381303   26.659080 H          1 MOL1         0.3650
       3    H2      19.282058   17.934854   26.308157 H          1 MOL1         0.3650
       4    C1      20.094822   19.264465   24.889673 C.3        1 MOL1         0.0209
       5    H3      20.787684   20.108898   24.925637 H          1 MOL1         0.0967
       6    H4      19.122637   19.630148   24.551127 H          1 MOL1         0.0967
       7    C2      20.624194   18.201420   23.907699 C.3        1 MOL1        -0.1378
       8    H5      21.578097   17.809565   24.285122 H          1 MOL1         0.0993
       9    H6      19.928331   17.352666   23.870911 H          1 MOL1         0.0993
      10    C3      20.841154   18.758118   22.480524 C.3        1 MOL1        -0.1338
      11    H7      21.321240   17.977095   21.876775 H          1 MOL1         0.0993
      12    H8      21.546509   19.599785   22.518970 H          1 MOL1         0.0993
      13    C4      19.524987   19.208727   21.796683 C.3        1 MOL1        -0.1338
      14    H9      18.827751   18.361427   21.740200 H          1 MOL1         0.0993
      15    H10     19.033225   19.972612   22.413271 H          1 MOL1         0.0993
      16    C5      19.736694   19.797505   20.380565 C.3        1 MOL1        -0.1313
      17    H11     20.424779   20.652885   20.432409 H          1 MOL1         0.0993
      18    H12     18.778628   20.196289   20.018640 H          1 MOL1         0.0993
      19    C6      20.263808   18.766911   19.355983 C.3        1 MOL1        -0.2328
      20    H13     21.277505   18.430472   19.605879 H          1 MOL1         0.1004
      21    H14     20.302435   19.209136   18.352051 H          1 MOL1         0.1004
      22    H15     19.610148   17.886268   19.309200 H          1 MOL1         0.1004
      23    C7      19.397959   19.850414   27.203792 C.3        1 MOL1        -0.0781
      24    H16     18.432352   20.193098   26.825472 H          1 MOL1         0.0978
      25    H17     19.279895   19.461380   28.217624 H          1 MOL1         0.0978
      26    H18     20.109441   20.679115   27.207277 H          1 MOL1         0.0978
@<TRIPOS>BOND
    1     1     2    1
    2     1     3    1
    3     1     4    1
    4     4     5    1
    5     4     6    1
    6     4     7    1
    7     7     8    1
    8     7     9    1
    9     7    10    1
   10    10    11    1
   11    10    12    1
   12    10    13    1
   13    13    14    1
   14    13    15    1
   15    13    16    1
   16    16    17    1
   17    16    18    1
   18    16    19    1
   19    19    20    1
   20    19    21    1
   21    19    22    1
   22     1    23    1
   23    23    24    1
   24    23    25    1
   25    23    26    1
@<TRIPOS>SUBSTRUCTURE
       1 MOL1            1 RESIDUE      1      MOL     
@<SCITEGIC>MOL_PROPERTY
VM2 Rank
SciTegic.value.IntegerValue
39

@<SCITEGIC>MOL_PROPERTY
Conf_Id
SciTegic.value.IntegerValue
1335

@<SCITEGIC>MOL_PROPERTY
Probability
SciTegic.value.DoubleValue
0.89

@<SCITEGIC>MOL_PROPERTY
Sum Probability
SciTegic.value.DoubleValue
71.47

@<SCITEGIC>MOL_PROPERTY
Delta G
SciTegic.value.DoubleValue
1.220

@<SCITEGIC>MOL_PROPERTY
G
SciTegic.value.DoubleValue
76.686

@<SCITEGIC>MOL_PROPERTY
E
SciTegic.value.DoubleValue
44.340

@<SCITEGIC>MOL_PROPERTY
-TS
SciTegic.value.DoubleValue
32.346

@<SCITEGIC>MOL_PROPERTY
U+W
SciTegic.value.DoubleValue
22.878

@<SCITEGIC>MOL_PROPERTY
U
SciTegic.value.DoubleValue
71.810

@<SCITEGIC>MOL_PROPERTY
W
SciTegic.value.DoubleValue
-48.932

@<SCITEGIC>MOL_PROPERTY
W(PB)
SciTegic.value.DoubleValue
-51.256

@<SCITEGIC>MOL_PROPERTY
W(SA)
SciTegic.value.DoubleValue
2.324

@<SCITEGIC>MOL_PROPERTY
Valence
SciTegic.value.DoubleValue
2.569

@<SCITEGIC>MOL_PROPERTY
Coulomb
SciTegic.value.DoubleValue
68.877

@<SCITEGIC>MOL_PROPERTY
VdW
SciTegic.value.DoubleValue
0.364

@<SCITEGIC>MOL_PROPERTY
VdW6
SciTegic.value.DoubleValue
-6.470

@<SCITEGIC>MOL_PROPERTY
VdW12
SciTegic.value.DoubleValue
6.834

@<SCITEGIC>MOL_PROPERTY
Bond
SciTegic.value.DoubleValue
0.191

@<SCITEGIC>MOL_PROPERTY
Angle
SciTegic.value.DoubleValue
0.752

@<SCITEGIC>MOL_PROPERTY
Pdih
SciTegic.value.DoubleValue
1.626

@<SCITEGIC>MOL_PROPERTY
Idih
SciTegic.value.DoubleValue
0.000

@<SCITEGIC>MOL_PROPERTY
Tether
SciTegic.value.DoubleValue
0.000

@<TRIPOS>MOLECULE
guest-s12_vm2.mol2 : vm2 ligand conformer 40
          26          25           1
SMALL
USER_CHARGES
 
@<TRIPOS>ATOM
       1    N1      20.469091   19.814479   25.787353 N.4        1 MOL1        -0.4857
       2    H1      20.438614   20.505533   26.553771 H          1 MOL1         0.3650
       3    H2      21.011634   20.269462   25.038179 H          1 MOL1         0.3650
       4    C1      19.055350   19.524806   25.307150 C.3        1 MOL1         0.0209
       5    H3      18.572778   20.486486   25.115022 H          1 MOL1         0.0967
       6    H4      18.520948   19.039079   26.127505 H          1 MOL1         0.0967
       7    C2      18.955180   18.650983   24.037503 C.3        1 MOL1        -0.1378
       8    H5      19.382888   17.659203   24.233215 H          1 MOL1         0.0993
       9    H6      17.892369   18.489853   23.813635 H          1 MOL1         0.0993
      10    C3      19.646432   19.292791   22.811067 C.3        1 MOL1        -0.1338
      11    H7      20.715898   19.419896   23.020598 H          1 MOL1         0.0993
      12    H8      19.230784   20.295332   22.639243 H          1 MOL1         0.0993
      13    C4      19.466316   18.433080   21.536694 C.3        1 MOL1        -0.1338
      14    H9      19.922568   17.445095   21.688548 H          1 MOL1         0.0993
      15    H10     18.394579   18.255949   21.371214 H          1 MOL1         0.0993
      16    C5      20.058010   19.085063   20.263387 C.3        1 MOL1        -0.1313
      17    H11     19.588958   20.064546   20.094815 H          1 MOL1         0.0993
      18    H12     19.794134   18.465107   19.395113 H          1 MOL1         0.0993
      19    C6      21.594723   19.245750   20.311357 C.3        1 MOL1        -0.2328
      20    H13     21.902338   19.957065   21.087692 H          1 MOL1         0.1004
      21    H14     21.971426   19.622799   19.351744 H          1 MOL1         0.1004
      22    H15     22.086495   18.284690   20.510160 H          1 MOL1         0.1004
      23    C7      21.162899   18.543047   26.262489 C.3        1 MOL1        -0.0781
      24    H16     21.246739   17.844103   25.427844 H          1 MOL1         0.0978
      25    H17     22.159456   18.796134   26.631084 H          1 MOL1         0.0978
      26    H18     20.575821   18.092954   27.065946 H          1 MOL1         0.0978
@<TRIPOS>BOND
    1     1     2    1
    2     1     3    1
    3     1     4    1
    4     4     5    1
    5     4     6    1
    6     4     7    1
    7     7     8    1
    8     7     9    1
    9     7    10    1
   10    10    11    1
   11    10    12    1
   12    10    13    1
   13    13    14    1
   14    13    15    1
   15    13    16    1
   16    16    17    1
   17    16    18    1
   18    16    19    1
   19    19    20    1
   20    19    21    1
   21    19    22    1
   22     1    23    1
   23    23    24    1
   24    23    25    1
   25    23    26    1
@<TRIPOS>SUBSTRUCTURE
       1 MOL1            1 RESIDUE      1      MOL     
@<SCITEGIC>MOL_PROPERTY
VM2 Rank
SciTegic.value.IntegerValue
40

@<SCITEGIC>MOL_PROPERTY
Conf_Id
SciTegic.value.IntegerValue
268

@<SCITEGIC>MOL_PROPERTY
Probability
SciTegic.value.DoubleValue
0.86

@<SCITEGIC>MOL_PROPERTY
Sum Probability
SciTegic.value.DoubleValue
72.33

@<SCITEGIC>MOL_PROPERTY
Delta G
SciTegic.value.DoubleValue
1.245

@<SCITEGIC>MOL_PROPERTY
G
SciTegic.value.DoubleValue
76.711

@<SCITEGIC>MOL_PROPERTY
E
SciTegic.value.DoubleValue
44.125

@<SCITEGIC>MOL_PROPERTY
-TS
SciTegic.value.DoubleValue
32.586

@<SCITEGIC>MOL_PROPERTY
U+W
SciTegic.value.DoubleValue
22.663

@<SCITEGIC>MOL_PROPERTY
U
SciTegic.value.DoubleValue
72.300

@<SCITEGIC>MOL_PROPERTY
W
SciTegic.value.DoubleValue
-49.637

@<SCITEGIC>MOL_PROPERTY
W(PB)
SciTegic.value.DoubleValue
-51.895

@<SCITEGIC>MOL_PROPERTY
W(SA)
SciTegic.value.DoubleValue
2.258

@<SCITEGIC>MOL_PROPERTY
Valence
SciTegic.value.DoubleValue
2.589

@<SCITEGIC>MOL_PROPERTY
Coulomb
SciTegic.value.DoubleValue
69.201

@<SCITEGIC>MOL_PROPERTY
VdW
SciTegic.value.DoubleValue
0.511

@<SCITEGIC>MOL_PROPERTY
VdW6
SciTegic.value.DoubleValue
-7.408

@<SCITEGIC>MOL_PROPERTY
VdW12
SciTegic.value.DoubleValue
7.919

@<SCITEGIC>MOL_PROPERTY
Bond
SciTegic.value.DoubleValue
0.221

@<SCITEGIC>MOL_PROPERTY
Angle
SciTegic.value.DoubleValue
0.820

@<SCITEGIC>MOL_PROPERTY
Pdih
SciTegic.value.DoubleValue
1.547

@<SCITEGIC>MOL_PROPERTY
Idih
SciTegic.value.DoubleValue
0.000

@<SCITEGIC>MOL_PROPERTY
Tether
SciTegic.value.DoubleValue
0.000

@<TRIPOS>MOLECULE
guest-s12_vm2.mol2 : vm2 ligand conformer 41
          26          25           1
SMALL
USER_CHARGES
 
@<TRIPOS>ATOM
       1    N1      20.241793   18.781700   26.044916 N.4        1 MOL1        -0.4857
       2    H1      21.212556   18.882308   25.712369 H          1 MOL1         0.3650
       3    H2      20.056648   17.766648   26.054559 H          1 MOL1         0.3650
       4    C1      19.288996   19.476755   25.091354 C.3        1 MOL1         0.0209
       5    H3      19.521573   20.544595   25.099873 H          1 MOL1         0.0967
       6    H4      18.277490   19.345006   25.483935 H          1 MOL1         0.0967
       7    C2      19.348000   18.944378   23.645807 C.3        1 MOL1        -0.1378
       8    H5      19.134449   17.867275   23.643090 H          1 MOL1         0.0993
       9    H6      18.543344   19.425618   23.076366 H          1 MOL1         0.0993
      10    C3      20.711741   19.218789   22.962882 C.3        1 MOL1        -0.1338
      11    H7      21.516251   18.770629   23.560727 H          1 MOL1         0.0993
      12    H8      20.906181   20.300212   22.945774 H          1 MOL1         0.0993
      13    C4      20.808950   18.652208   21.524644 C.3        1 MOL1        -0.1338
      14    H9      21.841317   18.779477   21.170396 H          1 MOL1         0.0993
      15    H10     20.621188   17.569707   21.541360 H          1 MOL1         0.0993
      16    C5      19.847792   19.333352   20.521337 C.3        1 MOL1        -0.1313
      17    H11     19.997689   20.421838   20.543914 H          1 MOL1         0.0993
      18    H12     18.804396   19.149383   20.809470 H          1 MOL1         0.0993
      19    C6      20.067013   18.817137   19.083097 C.3        1 MOL1        -0.2328
      20    H13     19.375837   19.307734   18.385519 H          1 MOL1         0.1004
      21    H14     19.895203   17.734575   19.021868 H          1 MOL1         0.1004
      22    H15     21.090279   19.020707   18.741518 H          1 MOL1         0.1004
      23    C7      20.093715   19.365682   27.442964 C.3        1 MOL1        -0.0781
      24    H16     19.067279   19.219247   27.786363 H          1 MOL1         0.0978
      25    H17     20.784852   18.857056   28.118797 H          1 MOL1         0.0978
      26    H18     20.325264   20.432651   27.412867 H          1 MOL1         0.0978
@<TRIPOS>BOND
    1     1     2    1
    2     1     3    1
    3     1     4    1
    4     4     5    1
    5     4     6    1
    6     4     7    1
    7     7     8    1
    8     7     9    1
    9     7    10    1
   10    10    11    1
   11    10    12    1
   12    10    13    1
   13    13    14    1
   14    13    15    1
   15    13    16    1
   16    16    17    1
   17    16    18    1
   18    16    19    1
   19    19    20    1
   20    19    21    1
   21    19    22    1
   22     1    23    1
   23    23    24    1
   24    23    25    1
   25    23    26    1
@<TRIPOS>SUBSTRUCTURE
       1 MOL1            1 RESIDUE      1      MOL     
@<SCITEGIC>MOL_PROPERTY
VM2 Rank
SciTegic.value.IntegerValue
41

@<SCITEGIC>MOL_PROPERTY
Conf_Id
SciTegic.value.IntegerValue
421

@<SCITEGIC>MOL_PROPERTY
Probability
SciTegic.value.DoubleValue
0.85

@<SCITEGIC>MOL_PROPERTY
Sum Probability
SciTegic.value.DoubleValue
73.17

@<SCITEGIC>MOL_PROPERTY
Delta G
SciTegic.value.DoubleValue
1.253

@<SCITEGIC>MOL_PROPERTY
G
SciTegic.value.DoubleValue
76.719

@<SCITEGIC>MOL_PROPERTY
E
SciTegic.value.DoubleValue
44.389

@<SCITEGIC>MOL_PROPERTY
-TS
SciTegic.value.DoubleValue
32.330

@<SCITEGIC>MOL_PROPERTY
U+W
SciTegic.value.DoubleValue
22.927

@<SCITEGIC>MOL_PROPERTY
U
SciTegic.value.DoubleValue
71.903

@<SCITEGIC>MOL_PROPERTY
W
SciTegic.value.DoubleValue
-48.976

@<SCITEGIC>MOL_PROPERTY
W(PB)
SciTegic.value.DoubleValue
-51.297

@<SCITEGIC>MOL_PROPERTY
W(SA)
SciTegic.value.DoubleValue
2.321

@<SCITEGIC>MOL_PROPERTY
Valence
SciTegic.value.DoubleValue
2.409

@<SCITEGIC>MOL_PROPERTY
Coulomb
SciTegic.value.DoubleValue
69.133

@<SCITEGIC>MOL_PROPERTY
VdW
SciTegic.value.DoubleValue
0.360

@<SCITEGIC>MOL_PROPERTY
VdW6
SciTegic.value.DoubleValue
-6.461

@<SCITEGIC>MOL_PROPERTY
VdW12
SciTegic.value.DoubleValue
6.822

@<SCITEGIC>MOL_PROPERTY
Bond
SciTegic.value.DoubleValue
0.187

@<SCITEGIC>MOL_PROPERTY
Angle
SciTegic.value.DoubleValue
0.708

@<SCITEGIC>MOL_PROPERTY
Pdih
SciTegic.value.DoubleValue
1.514

@<SCITEGIC>MOL_PROPERTY
Idih
SciTegic.value.DoubleValue
0.000

@<SCITEGIC>MOL_PROPERTY
Tether
SciTegic.value.DoubleValue
0.000

@<TRIPOS>MOLECULE
guest-s12_vm2.mol2 : vm2 ligand conformer 42
          26          25           1
SMALL
USER_CHARGES
 
@<TRIPOS>ATOM
       1    N1      19.457303   19.125430   26.020097 N.4        1 MOL1        -0.4857
       2    H1      19.275513   18.797880   26.982128 H          1 MOL1         0.3650
       3    H2      18.562713   19.003882   25.522422 H          1 MOL1         0.3650
       4    C1      20.531934   18.258815   25.382019 C.3        1 MOL1         0.0209
       5    H3      20.237810   17.216012   25.525763 H          1 MOL1         0.0967
       6    H4      21.461167   18.424690   25.932930 H          1 MOL1         0.0967
       7    C2      20.771822   18.509491   23.877176 C.3        1 MOL1        -0.1378
       8    H5      21.131572   19.535308   23.732050 H          1 MOL1         0.0993
       9    H6      21.579926   17.846465   23.541212 H          1 MOL1         0.0993
      10    C3      19.506718   18.252160   23.020798 C.3        1 MOL1        -0.1338
      11    H7      18.719293   18.969469   23.288410 H          1 MOL1         0.0993
      12    H8      19.111776   17.254555   23.258221 H          1 MOL1         0.0993
      13    C4      19.767838   18.327166   21.496252 C.3        1 MOL1        -0.1338
      14    H9      20.540556   17.597251   21.217974 H          1 MOL1         0.0993
      15    H10     18.852554   18.021380   20.970733 H          1 MOL1         0.0993
      16    C5      20.180770   19.736197   21.008175 C.3        1 MOL1        -0.1313
      17    H11     21.135791   20.030700   21.463100 H          1 MOL1         0.0993
      18    H12     19.433249   20.474604   21.330270 H          1 MOL1         0.0993
      19    C6      20.321470   19.788042   19.471798 C.3        1 MOL1        -0.2328
      20    H13     21.084465   19.080805   19.121292 H          1 MOL1         0.1004
      21    H14     20.617364   20.792782   19.143232 H          1 MOL1         0.1004
      22    H15     19.372519   19.538988   18.979205 H          1 MOL1         0.1004
      23    C7      19.870146   20.592699   26.040684 C.3        1 MOL1        -0.0781
      24    H16     19.997523   20.946264   25.015531 H          1 MOL1         0.0978
      25    H17     19.091045   21.176196   26.536241 H          1 MOL1         0.0978
      26    H18     20.810198   20.693133   26.587493 H          1 MOL1         0.0978
@<TRIPOS>BOND
    1     1     2    1
    2     1     3    1
    3     1     4    1
    4     4     5    1
    5     4     6    1
    6     4     7    1
    7     7     8    1
    8     7     9    1
    9     7    10    1
   10    10    11    1
   11    10    12    1
   12    10    13    1
   13    13    14    1
   14    13    15    1
   15    13    16    1
   16    16    17    1
   17    16    18    1
   18    16    19    1
   19    19    20    1
   20    19    21    1
   21    19    22    1
   22     1    23    1
   23    23    24    1
   24    23    25    1
   25    23    26    1
@<TRIPOS>SUBSTRUCTURE
       1 MOL1            1 RESIDUE      1      MOL     
@<SCITEGIC>MOL_PROPERTY
VM2 Rank
SciTegic.value.IntegerValue
42

@<SCITEGIC>MOL_PROPERTY
Conf_Id
SciTegic.value.IntegerValue
843

@<SCITEGIC>MOL_PROPERTY
Probability
SciTegic.value.DoubleValue
0.83

@<SCITEGIC>MOL_PROPERTY
Sum Probability
SciTegic.value.DoubleValue
74.00

@<SCITEGIC>MOL_PROPERTY
Delta G
SciTegic.value.DoubleValue
1.267

@<SCITEGIC>MOL_PROPERTY
G
SciTegic.value.DoubleValue
76.733

@<SCITEGIC>MOL_PROPERTY
E
SciTegic.value.DoubleValue
44.142

@<SCITEGIC>MOL_PROPERTY
-TS
SciTegic.value.DoubleValue
32.591

@<SCITEGIC>MOL_PROPERTY
U+W
SciTegic.value.DoubleValue
22.680

@<SCITEGIC>MOL_PROPERTY
U
SciTegic.value.DoubleValue
72.280

@<SCITEGIC>MOL_PROPERTY
W
SciTegic.value.DoubleValue
-49.600

@<SCITEGIC>MOL_PROPERTY
W(PB)
SciTegic.value.DoubleValue
-51.847

@<SCITEGIC>MOL_PROPERTY
W(SA)
SciTegic.value.DoubleValue
2.248

@<SCITEGIC>MOL_PROPERTY
Valence
SciTegic.value.DoubleValue
2.616

@<SCITEGIC>MOL_PROPERTY
Coulomb
SciTegic.value.DoubleValue
69.198

@<SCITEGIC>MOL_PROPERTY
VdW
SciTegic.value.DoubleValue
0.465

@<SCITEGIC>MOL_PROPERTY
VdW6
SciTegic.value.DoubleValue
-7.469

@<SCITEGIC>MOL_PROPERTY
VdW12
SciTegic.value.DoubleValue
7.934

@<SCITEGIC>MOL_PROPERTY
Bond
SciTegic.value.DoubleValue
0.224

@<SCITEGIC>MOL_PROPERTY
Angle
SciTegic.value.DoubleValue
0.811

@<SCITEGIC>MOL_PROPERTY
Pdih
SciTegic.value.DoubleValue
1.581

@<SCITEGIC>MOL_PROPERTY
Idih
SciTegic.value.DoubleValue
0.000

@<SCITEGIC>MOL_PROPERTY
Tether
SciTegic.value.DoubleValue
0.000

@<TRIPOS>MOLECULE
guest-s12_vm2.mol2 : vm2 ligand conformer 43
          26          25           1
SMALL
USER_CHARGES
 
@<TRIPOS>ATOM
       1    N1      19.095857   19.020518   25.813169 N.4        1 MOL1        -0.4857
       2    H1      18.490446   18.554600   26.507626 H          1 MOL1         0.3650
       3    H2      18.457113   19.328400   25.064889 H          1 MOL1         0.3650
       4    C1      20.101976   18.021272   25.263428 C.3        1 MOL1         0.0209
       5    H3      19.543997   17.134739   24.951444 H          1 MOL1         0.0967
       6    H4      20.761831   17.730801   26.084840 H          1 MOL1         0.0967
       7    C2      20.949186   18.524753   24.074252 C.3        1 MOL1        -0.1378
       8    H5      21.561130   19.379884   24.389073 H          1 MOL1         0.0993
       9    H6      21.651951   17.730180   23.790560 H          1 MOL1         0.0993
      10    C3      20.090072   18.910569   22.846733 C.3        1 MOL1        -0.1338
      11    H7      19.415652   19.736453   23.109279 H          1 MOL1         0.0993
      12    H8      19.459082   18.056409   22.567678 H          1 MOL1         0.0993
      13    C4      20.967279   19.333214   21.643671 C.3        1 MOL1        -0.1338
      14    H9      21.645721   20.137838   21.959461 H          1 MOL1         0.0993
      15    H10     21.606036   18.493436   21.336943 H          1 MOL1         0.0993
      16    C5      20.148683   19.830281   20.427424 C.3        1 MOL1        -0.1313
      17    H11     20.844472   20.205419   19.663863 H          1 MOL1         0.0993
      18    H12     19.526575   20.686748   20.722804 H          1 MOL1         0.0993
      19    C6      19.259338   18.735165   19.795573 C.3        1 MOL1        -0.2328
      20    H13     18.466941   18.412736   20.482251 H          1 MOL1         0.1004
      21    H14     19.853706   17.855036   19.517913 H          1 MOL1         0.1004
      22    H15     18.773690   19.112151   18.886205 H          1 MOL1         0.1004
      23    C7      19.795609   20.214227   26.452751 C.3        1 MOL1        -0.0781
      24    H16     20.382971   20.736834   25.695080 H          1 MOL1         0.0978
      25    H17     19.043539   20.890388   26.865349 H          1 MOL1         0.0978
      26    H18     20.451008   19.860113   27.251400 H          1 MOL1         0.0978
@<TRIPOS>BOND
    1     1     2    1
    2     1     3    1
    3     1     4    1
    4     4     5    1
    5     4     6    1
    6     4     7    1
    7     7     8    1
    8     7     9    1
    9     7    10    1
   10    10    11    1
   11    10    12    1
   12    10    13    1
   13    13    14    1
   14    13    15    1
   15    13    16    1
   16    16    17    1
   17    16    18    1
   18    16    19    1
   19    19    20    1
   20    19    21    1
   21    19    22    1
   22     1    23    1
   23    23    24    1
   24    23    25    1
   25    23    26    1
@<TRIPOS>SUBSTRUCTURE
       1 MOL1            1 RESIDUE      1      MOL     
@<SCITEGIC>MOL_PROPERTY
VM2 Rank
SciTegic.value.IntegerValue
43

@<SCITEGIC>MOL_PROPERTY
Conf_Id
SciTegic.value.IntegerValue
1362

@<SCITEGIC>MOL_PROPERTY
Probability
SciTegic.value.DoubleValue
0.82

@<SCITEGIC>MOL_PROPERTY
Sum Probability
SciTegic.value.DoubleValue
74.82

@<SCITEGIC>MOL_PROPERTY
Delta G
SciTegic.value.DoubleValue
1.273

@<SCITEGIC>MOL_PROPERTY
G
SciTegic.value.DoubleValue
76.739

@<SCITEGIC>MOL_PROPERTY
E
SciTegic.value.DoubleValue
44.148

@<SCITEGIC>MOL_PROPERTY
-TS
SciTegic.value.DoubleValue
32.591

@<SCITEGIC>MOL_PROPERTY
U+W
SciTegic.value.DoubleValue
22.686

@<SCITEGIC>MOL_PROPERTY
U
SciTegic.value.DoubleValue
72.183

@<SCITEGIC>MOL_PROPERTY
W
SciTegic.value.DoubleValue
-49.497

@<SCITEGIC>MOL_PROPERTY
W(PB)
SciTegic.value.DoubleValue
-51.755

@<SCITEGIC>MOL_PROPERTY
W(SA)
SciTegic.value.DoubleValue
2.258

@<SCITEGIC>MOL_PROPERTY
Valence
SciTegic.value.DoubleValue
2.592

@<SCITEGIC>MOL_PROPERTY
Coulomb
SciTegic.value.DoubleValue
69.072

@<SCITEGIC>MOL_PROPERTY
VdW
SciTegic.value.DoubleValue
0.519

@<SCITEGIC>MOL_PROPERTY
VdW6
SciTegic.value.DoubleValue
-7.379

@<SCITEGIC>MOL_PROPERTY
VdW12
SciTegic.value.DoubleValue
7.898

@<SCITEGIC>MOL_PROPERTY
Bond
SciTegic.value.DoubleValue
0.219

@<SCITEGIC>MOL_PROPERTY
Angle
SciTegic.value.DoubleValue
0.818

@<SCITEGIC>MOL_PROPERTY
Pdih
SciTegic.value.DoubleValue
1.555

@<SCITEGIC>MOL_PROPERTY
Idih
SciTegic.value.DoubleValue
0.000

@<SCITEGIC>MOL_PROPERTY
Tether
SciTegic.value.DoubleValue
0.000

@<TRIPOS>MOLECULE
guest-s12_vm2.mol2 : vm2 ligand conformer 44
          26          25           1
SMALL
USER_CHARGES
 
@<TRIPOS>ATOM
       1    N1      19.314959   19.693509   25.746506 N.4        1 MOL1        -0.4857
       2    H1      18.743617   20.031598   24.957908 H          1 MOL1         0.3650
       3    H2      19.147950   20.370318   26.508032 H          1 MOL1         0.3650
       4    C1      20.788064   19.706545   25.368400 C.3        1 MOL1         0.0209
       5    H3      21.352850   19.336150   26.227657 H          1 MOL1         0.0967
       6    H4      21.073129   20.748711   25.203345 H          1 MOL1         0.0967
       7    C2      21.155579   18.881675   24.115353 C.3        1 MOL1        -0.1378
       8    H5      22.241702   18.945867   23.967490 H          1 MOL1         0.0993
       9    H6      20.930007   17.821406   24.288024 H          1 MOL1         0.0993
      10    C3      20.433807   19.375246   22.838905 C.3        1 MOL1        -0.1338
      11    H7      20.643742   20.443362   22.689131 H          1 MOL1         0.0993
      12    H8      19.349236   19.276534   22.972251 H          1 MOL1         0.0993
      13    C4      20.876707   18.580764   21.586625 C.3        1 MOL1        -0.1338
      14    H9      21.970790   18.630538   21.497841 H          1 MOL1         0.0993
      15    H10     20.625367   17.518652   21.713456 H          1 MOL1         0.0993
      16    C5      20.253450   19.105426   20.270277 C.3        1 MOL1        -0.1313
      17    H11     20.699954   18.559806   19.427182 H          1 MOL1         0.0993
      18    H12     20.520304   20.161962   20.127688 H          1 MOL1         0.0993
      19    C6      18.717235   18.944334   20.209498 C.3        1 MOL1        -0.2328
      20    H13     18.215591   19.570926   20.957177 H          1 MOL1         0.1004
      21    H14     18.422283   17.900895   20.380491 H          1 MOL1         0.1004
      22    H15     18.338713   19.242279   19.223152 H          1 MOL1         0.1004
      23    C7      18.868200   18.302502   26.181437 C.3        1 MOL1        -0.0781
      24    H16     19.478232   17.978010   27.027222 H          1 MOL1         0.0978
      25    H17     17.817579   18.340925   26.477682 H          1 MOL1         0.0978
      26    H18     18.989489   17.607425   25.348166 H          1 MOL1         0.0978
@<TRIPOS>BOND
    1     1     2    1
    2     1     3    1
    3     1     4    1
    4     4     5    1
    5     4     6    1
    6     4     7    1
    7     7     8    1
    8     7     9    1
    9     7    10    1
   10    10    11    1
   11    10    12    1
   12    10    13    1
   13    13    14    1
   14    13    15    1
   15    13    16    1
   16    16    17    1
   17    16    18    1
   18    16    19    1
   19    19    20    1
   20    19    21    1
   21    19    22    1
   22     1    23    1
   23    23    24    1
   24    23    25    1
   25    23    26    1
@<TRIPOS>SUBSTRUCTURE
       1 MOL1            1 RESIDUE      1      MOL     
@<SCITEGIC>MOL_PROPERTY
VM2 Rank
SciTegic.value.IntegerValue
44

@<SCITEGIC>MOL_PROPERTY
Conf_Id
SciTegic.value.IntegerValue
1291

@<SCITEGIC>MOL_PROPERTY
Probability
SciTegic.value.DoubleValue
0.80

@<SCITEGIC>MOL_PROPERTY
Sum Probability
SciTegic.value.DoubleValue
75.61

@<SCITEGIC>MOL_PROPERTY
Delta G
SciTegic.value.DoubleValue
1.289

@<SCITEGIC>MOL_PROPERTY
G
SciTegic.value.DoubleValue
76.755

@<SCITEGIC>MOL_PROPERTY
E
SciTegic.value.DoubleValue
44.169

@<SCITEGIC>MOL_PROPERTY
-TS
SciTegic.value.DoubleValue
32.585

@<SCITEGIC>MOL_PROPERTY
U+W
SciTegic.value.DoubleValue
22.707

@<SCITEGIC>MOL_PROPERTY
U
SciTegic.value.DoubleValue
72.301

@<SCITEGIC>MOL_PROPERTY
W
SciTegic.value.DoubleValue
-49.593

@<SCITEGIC>MOL_PROPERTY
W(PB)
SciTegic.value.DoubleValue
-51.856

@<SCITEGIC>MOL_PROPERTY
W(SA)
SciTegic.value.DoubleValue
2.262

@<SCITEGIC>MOL_PROPERTY
Valence
SciTegic.value.DoubleValue
2.588

@<SCITEGIC>MOL_PROPERTY
Coulomb
SciTegic.value.DoubleValue
69.201

@<SCITEGIC>MOL_PROPERTY
VdW
SciTegic.value.DoubleValue
0.511

@<SCITEGIC>MOL_PROPERTY
VdW6
SciTegic.value.DoubleValue
-7.408

@<SCITEGIC>MOL_PROPERTY
VdW12
SciTegic.value.DoubleValue
7.919

@<SCITEGIC>MOL_PROPERTY
Bond
SciTegic.value.DoubleValue
0.221

@<SCITEGIC>MOL_PROPERTY
Angle
SciTegic.value.DoubleValue
0.820

@<SCITEGIC>MOL_PROPERTY
Pdih
SciTegic.value.DoubleValue
1.547

@<SCITEGIC>MOL_PROPERTY
Idih
SciTegic.value.DoubleValue
0.000

@<SCITEGIC>MOL_PROPERTY
Tether
SciTegic.value.DoubleValue
0.000

@<TRIPOS>MOLECULE
guest-s12_vm2.mol2 : vm2 ligand conformer 45
          26          25           1
SMALL
USER_CHARGES
 
@<TRIPOS>ATOM
       1    N1      20.429544   19.224161   26.054394 N.4        1 MOL1        -0.4857
       2    H1      21.362884   19.287963   25.621326 H          1 MOL1         0.3650
       3    H2      20.605626   18.932939   27.029086 H          1 MOL1         0.3650
       4    C1      19.597763   18.164201   25.348974 C.3        1 MOL1         0.0209
       5    H3      18.617909   18.136618   25.832312 H          1 MOL1         0.0967
       6    H4      20.084124   17.200534   25.520462 H          1 MOL1         0.0967
       7    C2      19.418420   18.372206   23.829271 C.3        1 MOL1        -0.1378
       8    H5      18.784931   17.563164   23.442424 H          1 MOL1         0.0993
       9    H6      18.871645   19.306211   23.651931 H          1 MOL1         0.0993
      10    C3      20.766174   18.379278   23.065336 C.3        1 MOL1        -0.1338
      11    H7      21.335062   17.479129   23.336749 H          1 MOL1         0.0993
      12    H8      21.373544   19.237628   23.382391 H          1 MOL1         0.0993
      13    C4      20.602603   18.411512   21.525774 C.3        1 MOL1        -0.1338
      14    H9      21.594980   18.298448   21.067711 H          1 MOL1         0.0993
      15    H10     20.012622   17.543989   21.199224 H          1 MOL1         0.0993
      16    C5      19.951754   19.713153   21.000196 C.3        1 MOL1        -0.1313
      17    H11     20.512397   20.583640   21.368583 H          1 MOL1         0.0993
      18    H12     18.927752   19.807781   21.385186 H          1 MOL1         0.0993
      19    C6      19.911257   19.746811   19.457417 C.3        1 MOL1        -0.2328
      20    H13     20.922881   19.695732   19.034108 H          1 MOL1         0.1004
      21    H14     19.444433   20.674570   19.101959 H          1 MOL1         0.1004
      22    H15     19.331212   18.904004   19.059393 H          1 MOL1         0.1004
      23    C7      19.730485   20.578677   26.035637 C.3        1 MOL1        -0.0781
      24    H16     19.606779   20.906759   25.001602 H          1 MOL1         0.0978
      25    H17     18.753511   20.484729   26.514679 H          1 MOL1         0.0978
      26    H18     20.340189   21.303019   26.580277 H          1 MOL1         0.0978
@<TRIPOS>BOND
    1     1     2    1
    2     1     3    1
    3     1     4    1
    4     4     5    1
    5     4     6    1
    6     4     7    1
    7     7     8    1
    8     7     9    1
    9     7    10    1
   10    10    11    1
   11    10    12    1
   12    10    13    1
   13    13    14    1
   14    13    15    1
   15    13    16    1
   16    16    17    1
   17    16    18    1
   18    16    19    1
   19    19    20    1
   20    19    21    1
   21    19    22    1
   22     1    23    1
   23    23    24    1
   24    23    25    1
   25    23    26    1
@<TRIPOS>SUBSTRUCTURE
       1 MOL1            1 RESIDUE      1      MOL     
@<SCITEGIC>MOL_PROPERTY
VM2 Rank
SciTegic.value.IntegerValue
45

@<SCITEGIC>MOL_PROPERTY
Conf_Id
SciTegic.value.IntegerValue
491

@<SCITEGIC>MOL_PROPERTY
Probability
SciTegic.value.DoubleValue
0.79

@<SCITEGIC>MOL_PROPERTY
Sum Probability
SciTegic.value.DoubleValue
76.40

@<SCITEGIC>MOL_PROPERTY
Delta G
SciTegic.value.DoubleValue
1.293

@<SCITEGIC>MOL_PROPERTY
G
SciTegic.value.DoubleValue
76.759

@<SCITEGIC>MOL_PROPERTY
E
SciTegic.value.DoubleValue
44.168

@<SCITEGIC>MOL_PROPERTY
-TS
SciTegic.value.DoubleValue
32.591

@<SCITEGIC>MOL_PROPERTY
U+W
SciTegic.value.DoubleValue
22.707

@<SCITEGIC>MOL_PROPERTY
U
SciTegic.value.DoubleValue
72.280

@<SCITEGIC>MOL_PROPERTY
W
SciTegic.value.DoubleValue
-49.573

@<SCITEGIC>MOL_PROPERTY
W(PB)
SciTegic.value.DoubleValue
-51.820

@<SCITEGIC>MOL_PROPERTY
W(SA)
SciTegic.value.DoubleValue
2.246

@<SCITEGIC>MOL_PROPERTY
Valence
SciTegic.value.DoubleValue
2.616

@<SCITEGIC>MOL_PROPERTY
Coulomb
SciTegic.value.DoubleValue
69.199

@<SCITEGIC>MOL_PROPERTY
VdW
SciTegic.value.DoubleValue
0.465

@<SCITEGIC>MOL_PROPERTY
VdW6
SciTegic.value.DoubleValue
-7.468

@<SCITEGIC>MOL_PROPERTY
VdW12
SciTegic.value.DoubleValue
7.934

@<SCITEGIC>MOL_PROPERTY
Bond
SciTegic.value.DoubleValue
0.224

@<SCITEGIC>MOL_PROPERTY
Angle
SciTegic.value.DoubleValue
0.811

@<SCITEGIC>MOL_PROPERTY
Pdih
SciTegic.value.DoubleValue
1.582

@<SCITEGIC>MOL_PROPERTY
Idih
SciTegic.value.DoubleValue
0.000

@<SCITEGIC>MOL_PROPERTY
Tether
SciTegic.value.DoubleValue
0.000

@<TRIPOS>MOLECULE
guest-s12_vm2.mol2 : vm2 ligand conformer 46
          26          25           1
SMALL
USER_CHARGES
 
@<TRIPOS>ATOM
       1    N1      19.780189   18.475789   26.047939 N.4        1 MOL1        -0.4857
       2    H1      20.669642   17.977825   26.208359 H          1 MOL1         0.3650
       3    H2      19.107442   17.749551   25.756838 H          1 MOL1         0.3650
       4    C1      19.948083   19.504580   24.947832 C.3        1 MOL1         0.0209
       5    H3      20.671910   20.247787   25.291628 H          1 MOL1         0.0967
       6    H4      18.985587   20.002013   24.804163 H          1 MOL1         0.0967
       7    C2      20.421706   18.898442   23.614405 C.3        1 MOL1        -0.1378
       8    H5      21.380982   18.386079   23.766249 H          1 MOL1         0.0993
       9    H6      19.697196   18.141398   23.288651 H          1 MOL1         0.0993
      10    C3      20.578854   19.985966   22.525793 C.3        1 MOL1        -0.1338
      11    H7      21.246467   20.773461   22.902272 H          1 MOL1         0.0993
      12    H8      19.611318   20.472946   22.344732 H          1 MOL1         0.0993
      13    C4      21.160095   19.449942   21.191646 C.3        1 MOL1        -0.1338
      14    H9      21.275204   20.291300   20.494429 H          1 MOL1         0.0993
      15    H10     22.174803   19.068799   21.371502 H          1 MOL1         0.0993
      16    C5      20.324842   18.340149   20.503137 C.3        1 MOL1        -0.1313
      17    H11     20.298916   17.439313   21.130760 H          1 MOL1         0.0993
      18    H12     20.834530   18.044115   19.575578 H          1 MOL1         0.0993
      19    C6      18.883058   18.778742   20.159781 C.3        1 MOL1        -0.2328
      20    H13     18.294929   18.972632   21.065378 H          1 MOL1         0.1004
      21    H14     18.366833   17.993215   19.592937 H          1 MOL1         0.1004
      22    H15     18.882913   19.689775   19.547442 H          1 MOL1         0.1004
      23    C7      19.311172   19.156391   27.326467 C.3        1 MOL1        -0.0781
      24    H16     19.194396   18.404693   28.110339 H          1 MOL1         0.0978
      25    H17     20.053927   19.896316   27.632715 H          1 MOL1         0.0978
      26    H18     18.353558   19.647927   27.141193 H          1 MOL1         0.0978
@<TRIPOS>BOND
    1     1     2    1
    2     1     3    1
    3     1     4    1
    4     4     5    1
    5     4     6    1
    6     4     7    1
    7     7     8    1
    8     7     9    1
    9     7    10    1
   10    10    11    1
   11    10    12    1
   12    10    13    1
   13    13    14    1
   14    13    15    1
   15    13    16    1
   16    16    17    1
   17    16    18    1
   18    16    19    1
   19    19    20    1
   20    19    21    1
   21    19    22    1
   22     1    23    1
   23    23    24    1
   24    23    25    1
   25    23    26    1
@<TRIPOS>SUBSTRUCTURE
       1 MOL1            1 RESIDUE      1      MOL     
@<SCITEGIC>MOL_PROPERTY
VM2 Rank
SciTegic.value.IntegerValue
46

@<SCITEGIC>MOL_PROPERTY
Conf_Id
SciTegic.value.IntegerValue
202

@<SCITEGIC>MOL_PROPERTY
Probability
SciTegic.value.DoubleValue
0.77

@<SCITEGIC>MOL_PROPERTY
Sum Probability
SciTegic.value.DoubleValue
77.18

@<SCITEGIC>MOL_PROPERTY
Delta G
SciTegic.value.DoubleValue
1.308

@<SCITEGIC>MOL_PROPERTY
G
SciTegic.value.DoubleValue
76.774

@<SCITEGIC>MOL_PROPERTY
E
SciTegic.value.DoubleValue
44.186

@<SCITEGIC>MOL_PROPERTY
-TS
SciTegic.value.DoubleValue
32.588

@<SCITEGIC>MOL_PROPERTY
U+W
SciTegic.value.DoubleValue
22.724

@<SCITEGIC>MOL_PROPERTY
U
SciTegic.value.DoubleValue
71.870

@<SCITEGIC>MOL_PROPERTY
W
SciTegic.value.DoubleValue
-49.146

@<SCITEGIC>MOL_PROPERTY
W(PB)
SciTegic.value.DoubleValue
-51.406

@<SCITEGIC>MOL_PROPERTY
W(SA)
SciTegic.value.DoubleValue
2.260

@<SCITEGIC>MOL_PROPERTY
Valence
SciTegic.value.DoubleValue
2.682

@<SCITEGIC>MOL_PROPERTY
Coulomb
SciTegic.value.DoubleValue
68.933

@<SCITEGIC>MOL_PROPERTY
VdW
SciTegic.value.DoubleValue
0.255

@<SCITEGIC>MOL_PROPERTY
VdW6
SciTegic.value.DoubleValue
-6.832

@<SCITEGIC>MOL_PROPERTY
VdW12
SciTegic.value.DoubleValue
7.088

@<SCITEGIC>MOL_PROPERTY
Bond
SciTegic.value.DoubleValue
0.205

@<SCITEGIC>MOL_PROPERTY
Angle
SciTegic.value.DoubleValue
1.003

@<SCITEGIC>MOL_PROPERTY
Pdih
SciTegic.value.DoubleValue
1.473

@<SCITEGIC>MOL_PROPERTY
Idih
SciTegic.value.DoubleValue
0.000

@<SCITEGIC>MOL_PROPERTY
Tether
SciTegic.value.DoubleValue
0.000

@<TRIPOS>MOLECULE
guest-s12_vm2.mol2 : vm2 ligand conformer 47
          26          25           1
SMALL
USER_CHARGES
 
@<TRIPOS>ATOM
       1    N1      19.673195   18.475690   26.251166 N.4        1 MOL1        -0.4857
       2    H1      20.515671   18.009738   26.622059 H          1 MOL1         0.3650
       3    H2      18.882044   17.907937   26.594155 H          1 MOL1         0.3650
       4    C1      19.689868   18.459988   24.731930 C.3        1 MOL1         0.0209
       5    H3      18.804921   18.997016   24.382373 H          1 MOL1         0.0967
       6    H4      19.601155   17.417309   24.416420 H          1 MOL1         0.0967
       7    C2      20.959755   19.068370   24.099629 C.3        1 MOL1        -0.1378
       8    H5      21.046133   20.127290   24.375351 H          1 MOL1         0.0993
       9    H6      21.843068   18.563270   24.512171 H          1 MOL1         0.0993
      10    C3      20.977824   18.934733   22.558693 C.3        1 MOL1        -0.1338
      11    H7      20.931068   17.871041   22.290002 H          1 MOL1         0.0993
      12    H8      21.939839   19.309699   22.183031 H          1 MOL1         0.0993
      13    C4      19.824555   19.709005   21.871368 C.3        1 MOL1        -0.1338
      14    H9      18.855817   19.281631   22.163052 H          1 MOL1         0.0993
      15    H10     19.825559   20.747581   22.230132 H          1 MOL1         0.0993
      16    C5      19.929267   19.722841   20.327066 C.3        1 MOL1        -0.1313
      17    H11     20.883025   20.176275   20.022831 H          1 MOL1         0.0993
      18    H12     19.138876   20.372418   19.925556 H          1 MOL1         0.0993
      19    C6      19.793644   18.320891   19.690269 C.3        1 MOL1        -0.2328
      20    H13     19.785243   18.395563   18.595155 H          1 MOL1         0.1004
      21    H14     18.859560   17.834764   20.000352 H          1 MOL1         0.1004
      22    H15     20.630244   17.668483   19.969422 H          1 MOL1         0.1004
      23    C7      19.559892   19.898482   26.786879 C.3        1 MOL1        -0.0781
      24    H16     19.514411   19.866764   27.877756 H          1 MOL1         0.0978
      25    H17     20.432956   20.473954   26.472805 H          1 MOL1         0.0978
      26    H18     18.651000   20.358720   26.393274 H          1 MOL1         0.0978
@<TRIPOS>BOND
    1     1     2    1
    2     1     3    1
    3     1     4    1
    4     4     5    1
    5     4     6    1
    6     4     7    1
    7     7     8    1
    8     7     9    1
    9     7    10    1
   10    10    11    1
   11    10    12    1
   12    10    13    1
   13    13    14    1
   14    13    15    1
   15    13    16    1
   16    16    17    1
   17    16    18    1
   18    16    19    1
   19    19    20    1
   20    19    21    1
   21    19    22    1
   22     1    23    1
   23    23    24    1
   24    23    25    1
   25    23    26    1
@<TRIPOS>SUBSTRUCTURE
       1 MOL1            1 RESIDUE      1      MOL     
@<SCITEGIC>MOL_PROPERTY
VM2 Rank
SciTegic.value.IntegerValue
47

@<SCITEGIC>MOL_PROPERTY
Conf_Id
SciTegic.value.IntegerValue
767

@<SCITEGIC>MOL_PROPERTY
Probability
SciTegic.value.DoubleValue
0.76

@<SCITEGIC>MOL_PROPERTY
Sum Probability
SciTegic.value.DoubleValue
77.94

@<SCITEGIC>MOL_PROPERTY
Delta G
SciTegic.value.DoubleValue
1.315

@<SCITEGIC>MOL_PROPERTY
G
SciTegic.value.DoubleValue
76.781

@<SCITEGIC>MOL_PROPERTY
E
SciTegic.value.DoubleValue
44.237

@<SCITEGIC>MOL_PROPERTY
-TS
SciTegic.value.DoubleValue
32.544

@<SCITEGIC>MOL_PROPERTY
U+W
SciTegic.value.DoubleValue
22.775

@<SCITEGIC>MOL_PROPERTY
U
SciTegic.value.DoubleValue
72.114

@<SCITEGIC>MOL_PROPERTY
W
SciTegic.value.DoubleValue
-49.339

@<SCITEGIC>MOL_PROPERTY
W(PB)
SciTegic.value.DoubleValue
-51.571

@<SCITEGIC>MOL_PROPERTY
W(SA)
SciTegic.value.DoubleValue
2.232

@<SCITEGIC>MOL_PROPERTY
Valence
SciTegic.value.DoubleValue
2.783

@<SCITEGIC>MOL_PROPERTY
Coulomb
SciTegic.value.DoubleValue
68.782

@<SCITEGIC>MOL_PROPERTY
VdW
SciTegic.value.DoubleValue
0.549

@<SCITEGIC>MOL_PROPERTY
VdW6
SciTegic.value.DoubleValue
-7.241

@<SCITEGIC>MOL_PROPERTY
VdW12
SciTegic.value.DoubleValue
7.790

@<SCITEGIC>MOL_PROPERTY
Bond
SciTegic.value.DoubleValue
0.221

@<SCITEGIC>MOL_PROPERTY
Angle
SciTegic.value.DoubleValue
0.803

@<SCITEGIC>MOL_PROPERTY
Pdih
SciTegic.value.DoubleValue
1.759

@<SCITEGIC>MOL_PROPERTY
Idih
SciTegic.value.DoubleValue
0.000

@<SCITEGIC>MOL_PROPERTY
Tether
SciTegic.value.DoubleValue
0.000

@<TRIPOS>MOLECULE
guest-s12_vm2.mol2 : vm2 ligand conformer 48
          26          25           1
SMALL
USER_CHARGES
 
@<TRIPOS>ATOM
       1    N1      20.243373   18.523152   26.064341 N.4        1 MOL1        -0.4857
       2    H1      21.067848   17.950164   25.826270 H          1 MOL1         0.3650
       3    H2      19.464061   17.854388   26.165607 H          1 MOL1         0.3650
       4    C1      19.948275   19.504599   24.947869 C.3        1 MOL1         0.0209
       5    H3      20.797869   20.187504   24.868425 H          1 MOL1         0.0967
       6    H4      19.066788   20.083492   25.234814 H          1 MOL1         0.0967
       7    C2      19.701644   18.824800   23.588899 C.3        1 MOL1        -0.1378
       8    H5      20.585281   18.232265   23.320132 H          1 MOL1         0.0993
       9    H6      18.857568   18.127959   23.676820 H          1 MOL1         0.0993
      10    C3      19.404491   19.865867   22.484202 C.3        1 MOL1        -0.1338
      11    H7      20.263860   20.539663   22.367825 H          1 MOL1         0.0993
      12    H8      18.566789   20.499430   22.807382 H          1 MOL1         0.0993
      13    C4      19.038437   19.232977   21.116516 C.3        1 MOL1        -0.1338
      14    H9      18.111676   18.653308   21.227634 H          1 MOL1         0.0993
      15    H10     18.804721   20.038665   20.406946 H          1 MOL1         0.0993
      16    C5      20.126888   18.319897   20.496121 C.3        1 MOL1        -0.1313
      17    H11     19.753755   17.933558   19.537321 H          1 MOL1         0.0993
      18    H12     20.290416   17.438452   21.130472 H          1 MOL1         0.0993
      19    C6      21.470644   19.043363   20.251357 C.3        1 MOL1        -0.2328
      20    H13     22.173369   18.382525   19.727596 H          1 MOL1         0.1004
      21    H14     21.942621   19.345605   21.194481 H          1 MOL1         0.1004
      22    H15     21.329436   19.940011   19.634087 H          1 MOL1         0.1004
      23    C7      20.474247   19.275346   27.367696 C.3        1 MOL1        -0.0781
      24    H16     19.577542   19.847434   27.615881 H          1 MOL1         0.0978
      25    H17     20.685530   18.557200   28.163162 H          1 MOL1         0.0978
      26    H18     21.323154   19.951821   27.246453 H          1 MOL1         0.0978
@<TRIPOS>BOND
    1     1     2    1
    2     1     3    1
    3     1     4    1
    4     4     5    1
    5     4     6    1
    6     4     7    1
    7     7     8    1
    8     7     9    1
    9     7    10    1
   10    10    11    1
   11    10    12    1
   12    10    13    1
   13    13    14    1
   14    13    15    1
   15    13    16    1
   16    16    17    1
   17    16    18    1
   18    16    19    1
   19    19    20    1
   20    19    21    1
   21    19    22    1
   22     1    23    1
   23    23    24    1
   24    23    25    1
   25    23    26    1
@<TRIPOS>SUBSTRUCTURE
       1 MOL1            1 RESIDUE      1      MOL     
@<SCITEGIC>MOL_PROPERTY
VM2 Rank
SciTegic.value.IntegerValue
48

@<SCITEGIC>MOL_PROPERTY
Conf_Id
SciTegic.value.IntegerValue
1385

@<SCITEGIC>MOL_PROPERTY
Probability
SciTegic.value.DoubleValue
0.74

@<SCITEGIC>MOL_PROPERTY
Sum Probability
SciTegic.value.DoubleValue
78.67

@<SCITEGIC>MOL_PROPERTY
Delta G
SciTegic.value.DoubleValue
1.336

@<SCITEGIC>MOL_PROPERTY
G
SciTegic.value.DoubleValue
76.802

@<SCITEGIC>MOL_PROPERTY
E
SciTegic.value.DoubleValue
44.214

@<SCITEGIC>MOL_PROPERTY
-TS
SciTegic.value.DoubleValue
32.588

@<SCITEGIC>MOL_PROPERTY
U+W
SciTegic.value.DoubleValue
22.752

@<SCITEGIC>MOL_PROPERTY
U
SciTegic.value.DoubleValue
71.870

@<SCITEGIC>MOL_PROPERTY
W
SciTegic.value.DoubleValue
-49.118

@<SCITEGIC>MOL_PROPERTY
W(PB)
SciTegic.value.DoubleValue
-51.408

@<SCITEGIC>MOL_PROPERTY
W(SA)
SciTegic.value.DoubleValue
2.290

@<SCITEGIC>MOL_PROPERTY
Valence
SciTegic.value.DoubleValue
2.682

@<SCITEGIC>MOL_PROPERTY
Coulomb
SciTegic.value.DoubleValue
68.933

@<SCITEGIC>MOL_PROPERTY
VdW
SciTegic.value.DoubleValue
0.255

@<SCITEGIC>MOL_PROPERTY
VdW6
SciTegic.value.DoubleValue
-6.832

@<SCITEGIC>MOL_PROPERTY
VdW12
SciTegic.value.DoubleValue
7.088

@<SCITEGIC>MOL_PROPERTY
Bond
SciTegic.value.DoubleValue
0.205

@<SCITEGIC>MOL_PROPERTY
Angle
SciTegic.value.DoubleValue
1.003

@<SCITEGIC>MOL_PROPERTY
Pdih
SciTegic.value.DoubleValue
1.474

@<SCITEGIC>MOL_PROPERTY
Idih
SciTegic.value.DoubleValue
0.000

@<SCITEGIC>MOL_PROPERTY
Tether
SciTegic.value.DoubleValue
0.000

@<TRIPOS>MOLECULE
guest-s12_vm2.mol2 : vm2 ligand conformer 49
          26          25           1
SMALL
USER_CHARGES
 
@<TRIPOS>ATOM
       1    N1      19.426337   19.084224   26.142430 N.4        1 MOL1        -0.4857
       2    H1      18.771476   18.407028   25.723844 H          1 MOL1         0.3650
       3    H2      18.918826   19.484952   26.947239 H          1 MOL1         0.3650
       4    C1      19.748832   20.186043   25.144791 C.3        1 MOL1         0.0209
       5    H3      20.449446   20.872267   25.627220 H          1 MOL1         0.0967
       6    H4      18.822502   20.733147   24.951897 H          1 MOL1         0.0967
       7    C2      20.339043   19.709278   23.799303 C.3        1 MOL1        -0.1378
       8    H5      20.568740   20.599041   23.200482 H          1 MOL1         0.0993
       9    H6      21.294244   19.197187   23.972408 H          1 MOL1         0.0993
      10    C3      19.374561   18.783220   23.016180 C.3        1 MOL1        -0.1338
      11    H7      18.429598   19.309831   22.823410 H          1 MOL1         0.0993
      12    H8      19.122718   17.913153   23.636808 H          1 MOL1         0.0993
      13    C4      19.961940   18.265531   21.679824 C.3        1 MOL1        -0.1338
      14    H9      20.903905   17.733741   21.872772 H          1 MOL1         0.0993
      15    H10     19.269567   17.521997   21.261234 H          1 MOL1         0.0993
      16    C5      20.195959   19.378352   20.630431 C.3        1 MOL1        -0.1313
      17    H11     20.948450   20.090925   20.993070 H          1 MOL1         0.0993
      18    H12     19.267249   19.945656   20.477335 H          1 MOL1         0.0993
      19    C6      20.668245   18.797346   19.280452 C.3        1 MOL1        -0.2328
      20    H13     21.611968   18.248406   19.395586 H          1 MOL1         0.1004
      21    H14     20.832355   19.599514   18.549278 H          1 MOL1         0.1004
      22    H15     19.921411   18.109481   18.862998 H          1 MOL1         0.1004
      23    C7      20.693082   18.386006   26.623589 C.3        1 MOL1        -0.0781
      24    H16     21.359063   19.123494   27.076761 H          1 MOL1         0.0978
      25    H17     20.424531   17.628077   27.362822 H          1 MOL1         0.0978
      26    H18     21.188363   17.911110   25.774278 H          1 MOL1         0.0978
@<TRIPOS>BOND
    1     1     2    1
    2     1     3    1
    3     1     4    1
    4     4     5    1
    5     4     6    1
    6     4     7    1
    7     7     8    1
    8     7     9    1
    9     7    10    1
   10    10    11    1
   11    10    12    1
   12    10    13    1
   13    13    14    1
   14    13    15    1
   15    13    16    1
   16    16    17    1
   17    16    18    1
   18    16    19    1
   19    19    20    1
   20    19    21    1
   21    19    22    1
   22     1    23    1
   23    23    24    1
   24    23    25    1
   25    23    26    1
@<TRIPOS>SUBSTRUCTURE
       1 MOL1            1 RESIDUE      1      MOL     
@<SCITEGIC>MOL_PROPERTY
VM2 Rank
SciTegic.value.IntegerValue
49

@<SCITEGIC>MOL_PROPERTY
Conf_Id
SciTegic.value.IntegerValue
1223

@<SCITEGIC>MOL_PROPERTY
Probability
SciTegic.value.DoubleValue
0.73

@<SCITEGIC>MOL_PROPERTY
Sum Probability
SciTegic.value.DoubleValue
79.41

@<SCITEGIC>MOL_PROPERTY
Delta G
SciTegic.value.DoubleValue
1.337

@<SCITEGIC>MOL_PROPERTY
G
SciTegic.value.DoubleValue
76.803

@<SCITEGIC>MOL_PROPERTY
E
SciTegic.value.DoubleValue
44.254

@<SCITEGIC>MOL_PROPERTY
-TS
SciTegic.value.DoubleValue
32.549

@<SCITEGIC>MOL_PROPERTY
U+W
SciTegic.value.DoubleValue
22.792

@<SCITEGIC>MOL_PROPERTY
U
SciTegic.value.DoubleValue
72.239

@<SCITEGIC>MOL_PROPERTY
W
SciTegic.value.DoubleValue
-49.446

@<SCITEGIC>MOL_PROPERTY
W(PB)
SciTegic.value.DoubleValue
-51.686

@<SCITEGIC>MOL_PROPERTY
W(SA)
SciTegic.value.DoubleValue
2.239

@<SCITEGIC>MOL_PROPERTY
Valence
SciTegic.value.DoubleValue
2.659

@<SCITEGIC>MOL_PROPERTY
Coulomb
SciTegic.value.DoubleValue
69.025

@<SCITEGIC>MOL_PROPERTY
VdW
SciTegic.value.DoubleValue
0.555

@<SCITEGIC>MOL_PROPERTY
VdW6
SciTegic.value.DoubleValue
-7.358

@<SCITEGIC>MOL_PROPERTY
VdW12
SciTegic.value.DoubleValue
7.913

@<SCITEGIC>MOL_PROPERTY
Bond
SciTegic.value.DoubleValue
0.229

@<SCITEGIC>MOL_PROPERTY
Angle
SciTegic.value.DoubleValue
0.883

@<SCITEGIC>MOL_PROPERTY
Pdih
SciTegic.value.DoubleValue
1.546

@<SCITEGIC>MOL_PROPERTY
Idih
SciTegic.value.DoubleValue
0.000

@<SCITEGIC>MOL_PROPERTY
Tether
SciTegic.value.DoubleValue
0.000

@<TRIPOS>MOLECULE
guest-s12_vm2.mol2 : vm2 ligand conformer 50
          26          25           1
SMALL
USER_CHARGES
 
@<TRIPOS>ATOM
       1    N1      20.347795   18.895623   26.077187 N.4        1 MOL1        -0.4857
       2    H1      21.011629   18.276309   26.568712 H          1 MOL1         0.3650
       3    H2      19.492393   18.880077   26.653741 H          1 MOL1         0.3650
       4    C1      20.059722   18.337037   24.694050 C.3        1 MOL1         0.0209
       5    H3      19.822549   17.276799   24.813220 H          1 MOL1         0.0967
       6    H4      20.976330   18.416077   24.104582 H          1 MOL1         0.0967
       7    C2      18.896897   19.030454   23.953120 C.3        1 MOL1        -0.1378
       8    H5      17.996648   18.988159   24.580202 H          1 MOL1         0.0993
       9    H6      19.121652   20.094652   23.811530 H          1 MOL1         0.0993
      10    C3      18.585088   18.373922   22.585130 C.3        1 MOL1        -0.1338
      11    H7      17.752877   18.913393   22.112184 H          1 MOL1         0.0993
      12    H8      18.222857   17.350635   22.755831 H          1 MOL1         0.0993
      13    C4      19.781541   18.320033   21.599695 C.3        1 MOL1        -0.1338
      14    H9      20.579807   17.688391   22.012054 H          1 MOL1         0.0993
      15    H10     19.448618   17.822091   20.678503 H          1 MOL1         0.0993
      16    C5      20.352314   19.712485   21.240470 C.3        1 MOL1        -0.1313
      17    H11     20.761574   20.197099   22.136997 H          1 MOL1         0.0993
      18    H12     19.545705   20.359397   20.868137 H          1 MOL1         0.0993
      19    C6      21.463794   19.614566   20.173836 C.3        1 MOL1        -0.2328
      20    H13     21.858960   20.610030   19.933220 H          1 MOL1         0.1004
      21    H14     21.082457   19.170590   19.245049 H          1 MOL1         0.1004
      22    H15     22.299196   18.997670   20.529820 H          1 MOL1         0.1004
      23    C7      20.920849   20.305880   25.993514 C.3        1 MOL1        -0.0781
      24    H16     20.186308   20.968251   25.531233 H          1 MOL1         0.0978
      25    H17     21.149669   20.658636   27.001624 H          1 MOL1         0.0978
      26    H18     21.833278   20.287315   25.393551 H          1 MOL1         0.0978
@<TRIPOS>BOND
    1     1     2    1
    2     1     3    1
    3     1     4    1
    4     4     5    1
    5     4     6    1
    6     4     7    1
    7     7     8    1
    8     7     9    1
    9     7    10    1
   10    10    11    1
   11    10    12    1
   12    10    13    1
   13    13    14    1
   14    13    15    1
   15    13    16    1
   16    16    17    1
   17    16    18    1
   18    16    19    1
   19    19    20    1
   20    19    21    1
   21    19    22    1
   22     1    23    1
   23    23    24    1
   24    23    25    1
   25    23    26    1
@<TRIPOS>SUBSTRUCTURE
       1 MOL1            1 RESIDUE      1      MOL     
@<SCITEGIC>MOL_PROPERTY
VM2 Rank
SciTegic.value.IntegerValue
50

@<SCITEGIC>MOL_PROPERTY
Conf_Id
SciTegic.value.IntegerValue
784

@<SCITEGIC>MOL_PROPERTY
Probability
SciTegic.value.DoubleValue
0.73

@<SCITEGIC>MOL_PROPERTY
Sum Probability
SciTegic.value.DoubleValue
80.14

@<SCITEGIC>MOL_PROPERTY
Delta G
SciTegic.value.DoubleValue
1.339

@<SCITEGIC>MOL_PROPERTY
G
SciTegic.value.DoubleValue
76.805

@<SCITEGIC>MOL_PROPERTY
E
SciTegic.value.DoubleValue
44.136

@<SCITEGIC>MOL_PROPERTY
-TS
SciTegic.value.DoubleValue
32.669

@<SCITEGIC>MOL_PROPERTY
U+W
SciTegic.value.DoubleValue
22.674

@<SCITEGIC>MOL_PROPERTY
U
SciTegic.value.DoubleValue
72.352

@<SCITEGIC>MOL_PROPERTY
W
SciTegic.value.DoubleValue
-49.678

@<SCITEGIC>MOL_PROPERTY
W(PB)
SciTegic.value.DoubleValue
-51.913

@<SCITEGIC>MOL_PROPERTY
W(SA)
SciTegic.value.DoubleValue
2.235

@<SCITEGIC>MOL_PROPERTY
Valence
SciTegic.value.DoubleValue
2.742

@<SCITEGIC>MOL_PROPERTY
Coulomb
SciTegic.value.DoubleValue
69.270

@<SCITEGIC>MOL_PROPERTY
VdW
SciTegic.value.DoubleValue
0.339

@<SCITEGIC>MOL_PROPERTY
VdW6
SciTegic.value.DoubleValue
-7.703

@<SCITEGIC>MOL_PROPERTY
VdW12
SciTegic.value.DoubleValue
8.042

@<SCITEGIC>MOL_PROPERTY
Bond
SciTegic.value.DoubleValue
0.229

@<SCITEGIC>MOL_PROPERTY
Angle
SciTegic.value.DoubleValue
0.954

@<SCITEGIC>MOL_PROPERTY
Pdih
SciTegic.value.DoubleValue
1.560

@<SCITEGIC>MOL_PROPERTY
Idih
SciTegic.value.DoubleValue
0.000

@<SCITEGIC>MOL_PROPERTY
Tether
SciTegic.value.DoubleValue
0.000

@<TRIPOS>MOLECULE
guest-s12_vm2.mol2 : vm2 ligand conformer 51
          26          25           1
SMALL
USER_CHARGES
 
@<TRIPOS>ATOM
       1    N1      19.601370   18.819995   26.050758 N.4        1 MOL1        -0.4857
       2    H1      20.399970   18.972232   26.685921 H          1 MOL1         0.3650
       3    H2      19.042421   18.076705   26.498999 H          1 MOL1         0.3650
       4    C1      20.091784   18.340272   24.695237 C.3        1 MOL1         0.0209
       5    H3      19.221543   18.238098   24.042450 H          1 MOL1         0.0967
       6    H4      20.527753   17.348296   24.838317 H          1 MOL1         0.0967
       7    C2      21.140980   19.257952   24.032652 C.3        1 MOL1        -0.1378
       8    H5      20.717932   20.256465   23.868087 H          1 MOL1         0.0993
       9    H6      21.985251   19.392553   24.721535 H          1 MOL1         0.0993
      10    C3      21.673120   18.686966   22.694571 C.3        1 MOL1        -0.1338
      11    H7      22.220234   17.755863   22.897495 H          1 MOL1         0.0993
      12    H8      22.411363   19.385638   22.277275 H          1 MOL1         0.0993
      13    C4      20.583795   18.401363   21.628132 C.3        1 MOL1        -0.1338
      14    H9      21.073482   17.986819   20.736091 H          1 MOL1         0.0993
      15    H10     19.901444   17.619623   21.988017 H          1 MOL1         0.0993
      16    C5      19.772105   19.653669   21.219913 C.3        1 MOL1        -0.1313
      17    H11     20.456740   20.451770   20.900457 H          1 MOL1         0.0993
      18    H12     19.212195   20.040014   22.082087 H          1 MOL1         0.0993
      19    C6      18.780365   19.342532   20.078716 C.3        1 MOL1        -0.2328
      20    H13     18.062738   18.568165   20.379629 H          1 MOL1         0.1004
      21    H14     19.307103   18.990648   19.182110 H          1 MOL1         0.1004
      22    H15     18.211518   20.240260   19.803948 H          1 MOL1         0.1004
      23    C7      18.764480   20.087251   25.917022 C.3        1 MOL1        -0.0781
      24    H16     17.918649   19.890324   25.254739 H          1 MOL1         0.0978
      25    H17     18.399486   20.379854   26.904061 H          1 MOL1         0.0978
      26    H18     19.381846   20.886695   25.502610 H          1 MOL1         0.0978
@<TRIPOS>BOND
    1     1     2    1
    2     1     3    1
    3     1     4    1
    4     4     5    1
    5     4     6    1
    6     4     7    1
    7     7     8    1
    8     7     9    1
    9     7    10    1
   10    10    11    1
   11    10    12    1
   12    10    13    1
   13    13    14    1
   14    13    15    1
   15    13    16    1
   16    16    17    1
   17    16    18    1
   18    16    19    1
   19    19    20    1
   20    19    21    1
   21    19    22    1
   22     1    23    1
   23    23    24    1
   24    23    25    1
   25    23    26    1
@<TRIPOS>SUBSTRUCTURE
       1 MOL1            1 RESIDUE      1      MOL     
@<SCITEGIC>MOL_PROPERTY
VM2 Rank
SciTegic.value.IntegerValue
51

@<SCITEGIC>MOL_PROPERTY
Conf_Id
SciTegic.value.IntegerValue
283

@<SCITEGIC>MOL_PROPERTY
Probability
SciTegic.value.DoubleValue
0.72

@<SCITEGIC>MOL_PROPERTY
Sum Probability
SciTegic.value.DoubleValue
80.86

@<SCITEGIC>MOL_PROPERTY
Delta G
SciTegic.value.DoubleValue
1.350

@<SCITEGIC>MOL_PROPERTY
G
SciTegic.value.DoubleValue
76.816

@<SCITEGIC>MOL_PROPERTY
E
SciTegic.value.DoubleValue
44.147

@<SCITEGIC>MOL_PROPERTY
-TS
SciTegic.value.DoubleValue
32.669

@<SCITEGIC>MOL_PROPERTY
U+W
SciTegic.value.DoubleValue
22.685

@<SCITEGIC>MOL_PROPERTY
U
SciTegic.value.DoubleValue
72.352

@<SCITEGIC>MOL_PROPERTY
W
SciTegic.value.DoubleValue
-49.667

@<SCITEGIC>MOL_PROPERTY
W(PB)
SciTegic.value.DoubleValue
-51.903

@<SCITEGIC>MOL_PROPERTY
W(SA)
SciTegic.value.DoubleValue
2.236

@<SCITEGIC>MOL_PROPERTY
Valence
SciTegic.value.DoubleValue
2.742

@<SCITEGIC>MOL_PROPERTY
Coulomb
SciTegic.value.DoubleValue
69.270

@<SCITEGIC>MOL_PROPERTY
VdW
SciTegic.value.DoubleValue
0.339

@<SCITEGIC>MOL_PROPERTY
VdW6
SciTegic.value.DoubleValue
-7.703

@<SCITEGIC>MOL_PROPERTY
VdW12
SciTegic.value.DoubleValue
8.042

@<SCITEGIC>MOL_PROPERTY
Bond
SciTegic.value.DoubleValue
0.229

@<SCITEGIC>MOL_PROPERTY
Angle
SciTegic.value.DoubleValue
0.954

@<SCITEGIC>MOL_PROPERTY
Pdih
SciTegic.value.DoubleValue
1.560

@<SCITEGIC>MOL_PROPERTY
Idih
SciTegic.value.DoubleValue
0.000

@<SCITEGIC>MOL_PROPERTY
Tether
SciTegic.value.DoubleValue
0.000

@<TRIPOS>MOLECULE
guest-s12_vm2.mol2 : vm2 ligand conformer 52
          26          25           1
SMALL
USER_CHARGES
 
@<TRIPOS>ATOM
       1    N1      19.114238   18.697633   25.429528 N.4        1 MOL1        -0.4857
       2    H1      18.546518   17.901687   25.761071 H          1 MOL1         0.3650
       3    H2      18.592254   19.087275   24.630506 H          1 MOL1         0.3650
       4    C1      20.473797   18.197441   24.967693 C.3        1 MOL1         0.0209
       5    H3      20.299841   17.360173   24.287483 H          1 MOL1         0.0967
       6    H4      21.000826   17.812052   25.844149 H          1 MOL1         0.0967
       7    C2      21.353706   19.250772   24.256896 C.3        1 MOL1        -0.1378
       8    H5      21.616814   20.045370   24.966991 H          1 MOL1         0.0993
       9    H6      22.301886   18.777864   23.968959 H          1 MOL1         0.0993
      10    C3      20.696370   19.881123   23.003464 C.3        1 MOL1        -0.1338
      11    H7      21.387010   20.625938   22.584390 H          1 MOL1         0.0993
      12    H8      19.793189   20.434004   23.294679 H          1 MOL1         0.0993
      13    C4      20.346846   18.842389   21.910546 C.3        1 MOL1        -0.1338
      14    H9      21.250074   18.279171   21.637837 H          1 MOL1         0.0993
      15    H10     19.623957   18.113613   22.300519 H          1 MOL1         0.0993
      16    C5      19.758792   19.512607   20.648826 C.3        1 MOL1        -0.1313
      17    H11     20.478900   20.237074   20.243148 H          1 MOL1         0.0993
      18    H12     18.855867   20.079444   20.915954 H          1 MOL1         0.0993
      19    C6      19.408571   18.475469   19.560459 C.3        1 MOL1        -0.2328
      20    H13     18.663008   17.756766   19.924858 H          1 MOL1         0.1004
      21    H14     20.299287   17.915043   19.247815 H          1 MOL1         0.1004
      22    H15     18.993425   18.970165   18.672797 H          1 MOL1         0.1004
      23    C7      19.255680   19.732566   26.539589 C.3        1 MOL1        -0.0781
      24    H16     19.796180   19.287660   27.377852 H          1 MOL1         0.0978
      25    H17     19.805727   20.596001   26.159982 H          1 MOL1         0.0978
      26    H18     18.261223   20.044883   26.865983 H          1 MOL1         0.0978
@<TRIPOS>BOND
    1     1     2    1
    2     1     3    1
    3     1     4    1
    4     4     5    1
    5     4     6    1
    6     4     7    1
    7     7     8    1
    8     7     9    1
    9     7    10    1
   10    10    11    1
   11    10    12    1
   12    10    13    1
   13    13    14    1
   14    13    15    1
   15    13    16    1
   16    16    17    1
   17    16    18    1
   18    16    19    1
   19    19    20    1
   20    19    21    1
   21    19    22    1
   22     1    23    1
   23    23    24    1
   24    23    25    1
   25    23    26    1
@<TRIPOS>SUBSTRUCTURE
       1 MOL1            1 RESIDUE      1      MOL     
@<SCITEGIC>MOL_PROPERTY
VM2 Rank
SciTegic.value.IntegerValue
52

@<SCITEGIC>MOL_PROPERTY
Conf_Id
SciTegic.value.IntegerValue
733

@<SCITEGIC>MOL_PROPERTY
Probability
SciTegic.value.DoubleValue
0.71

@<SCITEGIC>MOL_PROPERTY
Sum Probability
SciTegic.value.DoubleValue
81.57

@<SCITEGIC>MOL_PROPERTY
Delta G
SciTegic.value.DoubleValue
1.356

@<SCITEGIC>MOL_PROPERTY
G
SciTegic.value.DoubleValue
76.822

@<SCITEGIC>MOL_PROPERTY
E
SciTegic.value.DoubleValue
44.139

@<SCITEGIC>MOL_PROPERTY
-TS
SciTegic.value.DoubleValue
32.683

@<SCITEGIC>MOL_PROPERTY
U+W
SciTegic.value.DoubleValue
22.677

@<SCITEGIC>MOL_PROPERTY
U
SciTegic.value.DoubleValue
72.375

@<SCITEGIC>MOL_PROPERTY
W
SciTegic.value.DoubleValue
-49.698

@<SCITEGIC>MOL_PROPERTY
W(PB)
SciTegic.value.DoubleValue
-51.947

@<SCITEGIC>MOL_PROPERTY
W(SA)
SciTegic.value.DoubleValue
2.249

@<SCITEGIC>MOL_PROPERTY
Valence
SciTegic.value.DoubleValue
2.386

@<SCITEGIC>MOL_PROPERTY
Coulomb
SciTegic.value.DoubleValue
69.688

@<SCITEGIC>MOL_PROPERTY
VdW
SciTegic.value.DoubleValue
0.300

@<SCITEGIC>MOL_PROPERTY
VdW6
SciTegic.value.DoubleValue
-7.603

@<SCITEGIC>MOL_PROPERTY
VdW12
SciTegic.value.DoubleValue
7.902

@<SCITEGIC>MOL_PROPERTY
Bond
SciTegic.value.DoubleValue
0.210

@<SCITEGIC>MOL_PROPERTY
Angle
SciTegic.value.DoubleValue
0.753

@<SCITEGIC>MOL_PROPERTY
Pdih
SciTegic.value.DoubleValue
1.423

@<SCITEGIC>MOL_PROPERTY
Idih
SciTegic.value.DoubleValue
0.000

@<SCITEGIC>MOL_PROPERTY
Tether
SciTegic.value.DoubleValue
0.000

@<TRIPOS>MOLECULE
guest-s12_vm2.mol2 : vm2 ligand conformer 53
          26          25           1
SMALL
USER_CHARGES
 
@<TRIPOS>ATOM
       1    N1      20.333297   18.543098   26.274540 N.4        1 MOL1        -0.4857
       2    H1      21.196673   18.144086   26.676132 H          1 MOL1         0.3650
       3    H2      19.578191   17.914311   26.588990 H          1 MOL1         0.3650
       4    C1      20.426468   18.534980   24.758014 C.3        1 MOL1         0.0209
       5    H3      20.745409   17.533828   24.457073 H          1 MOL1         0.0967
       6    H4      21.207233   19.241817   24.467317 H          1 MOL1         0.0967
       7    C2      19.107439   18.879260   24.034014 C.3        1 MOL1        -0.1378
       8    H5      18.317474   18.203436   24.387253 H          1 MOL1         0.0993
       9    H6      18.790160   19.896990   24.295459 H          1 MOL1         0.0993
      10    C3      19.224701   18.755785   22.496589 C.3        1 MOL1        -0.1338
      11    H7      18.235547   18.931609   22.051783 H          1 MOL1         0.0993
      12    H8      19.503838   17.725362   22.239419 H          1 MOL1         0.0993
      13    C4      20.243277   19.751759   21.886273 C.3        1 MOL1        -0.1338
      14    H9      20.007550   20.766168   22.236645 H          1 MOL1         0.0993
      15    H10     21.255451   19.526606   22.248199 H          1 MOL1         0.0993
      16    C5      20.246452   19.755237   20.338371 C.3        1 MOL1        -0.1313
      17    H11     20.915588   20.553869   19.988626 H          1 MOL1         0.0993
      18    H12     19.244514   20.008954   19.964787 H          1 MOL1         0.0993
      19    C6      20.706620   18.414137   19.722693 C.3        1 MOL1        -0.2328
      20    H13     20.001521   17.604267   19.947216 H          1 MOL1         0.1004
      21    H14     21.695556   18.124420   20.100922 H          1 MOL1         0.1004
      22    H15     20.776468   18.496801   18.630351 H          1 MOL1         0.1004
      23    C7      20.119746   19.955744   26.806506 C.3        1 MOL1        -0.0781
      24    H16     20.942478   20.592480   26.474075 H          1 MOL1         0.0978
      25    H17     19.172758   20.345605   26.427991 H          1 MOL1         0.0978
      26    H18     20.094278   19.926220   27.898093 H          1 MOL1         0.0978
@<TRIPOS>BOND
    1     1     2    1
    2     1     3    1
    3     1     4    1
    4     4     5    1
    5     4     6    1
    6     4     7    1
    7     7     8    1
    8     7     9    1
    9     7    10    1
   10    10    11    1
   11    10    12    1
   12    10    13    1
   13    13    14    1
   14    13    15    1
   15    13    16    1
   16    16    17    1
   17    16    18    1
   18    16    19    1
   19    19    20    1
   20    19    21    1
   21    19    22    1
   22     1    23    1
   23    23    24    1
   24    23    25    1
   25    23    26    1
@<TRIPOS>SUBSTRUCTURE
       1 MOL1            1 RESIDUE      1      MOL     
@<SCITEGIC>MOL_PROPERTY
VM2 Rank
SciTegic.value.IntegerValue
53

@<SCITEGIC>MOL_PROPERTY
Conf_Id
SciTegic.value.IntegerValue
1551

@<SCITEGIC>MOL_PROPERTY
Probability
SciTegic.value.DoubleValue
0.70

@<SCITEGIC>MOL_PROPERTY
Sum Probability
SciTegic.value.DoubleValue
82.27

@<SCITEGIC>MOL_PROPERTY
Delta G
SciTegic.value.DoubleValue
1.365

@<SCITEGIC>MOL_PROPERTY
G
SciTegic.value.DoubleValue
76.831

@<SCITEGIC>MOL_PROPERTY
E
SciTegic.value.DoubleValue
44.286

@<SCITEGIC>MOL_PROPERTY
-TS
SciTegic.value.DoubleValue
32.544

@<SCITEGIC>MOL_PROPERTY
U+W
SciTegic.value.DoubleValue
22.825

@<SCITEGIC>MOL_PROPERTY
U
SciTegic.value.DoubleValue
72.114

@<SCITEGIC>MOL_PROPERTY
W
SciTegic.value.DoubleValue
-49.290

@<SCITEGIC>MOL_PROPERTY
W(PB)
SciTegic.value.DoubleValue
-51.566

@<SCITEGIC>MOL_PROPERTY
W(SA)
SciTegic.value.DoubleValue
2.276

@<SCITEGIC>MOL_PROPERTY
Valence
SciTegic.value.DoubleValue
2.783

@<SCITEGIC>MOL_PROPERTY
Coulomb
SciTegic.value.DoubleValue
68.782

@<SCITEGIC>MOL_PROPERTY
VdW
SciTegic.value.DoubleValue
0.549

@<SCITEGIC>MOL_PROPERTY
VdW6
SciTegic.value.DoubleValue
-7.241

@<SCITEGIC>MOL_PROPERTY
VdW12
SciTegic.value.DoubleValue
7.790

@<SCITEGIC>MOL_PROPERTY
Bond
SciTegic.value.DoubleValue
0.221

@<SCITEGIC>MOL_PROPERTY
Angle
SciTegic.value.DoubleValue
0.803

@<SCITEGIC>MOL_PROPERTY
Pdih
SciTegic.value.DoubleValue
1.759

@<SCITEGIC>MOL_PROPERTY
Idih
SciTegic.value.DoubleValue
0.000

@<SCITEGIC>MOL_PROPERTY
Tether
SciTegic.value.DoubleValue
0.000

@<TRIPOS>MOLECULE
guest-s12_vm2.mol2 : vm2 ligand conformer 54
          26          25           1
SMALL
USER_CHARGES
 
@<TRIPOS>ATOM
       1    N1      20.459211   19.191815   26.178966 N.4        1 MOL1        -0.4857
       2    H1      20.815927   19.682548   27.014313 H          1 MOL1         0.3650
       3    H2      21.266985   18.666843   25.812146 H          1 MOL1         0.3650
       4    C1      19.987521   20.210910   25.153174 C.3        1 MOL1         0.0209
       5    H3      20.792710   20.938188   25.021436 H          1 MOL1         0.0967
       6    H4      19.128816   20.734904   25.580437 H          1 MOL1         0.0967
       7    C2      19.603425   19.632663   23.773286 C.3        1 MOL1        -0.1378
       8    H5      18.764156   18.933947   23.882992 H          1 MOL1         0.0993
       9    H6      19.238184   20.460490   23.153345 H          1 MOL1         0.0993
      10    C3      20.789970   18.930244   23.066316 C.3        1 MOL1        -0.1338
      11    H7      21.171105   18.125951   23.709334 H          1 MOL1         0.0993
      12    H8      21.617725   19.641133   22.936351 H          1 MOL1         0.0993
      13    C4      20.416460   18.312735   21.695900 C.3        1 MOL1        -0.1338
      14    H9      21.274330   17.730292   21.332228 H          1 MOL1         0.0993
      15    H10     19.592618   17.597462   21.826264 H          1 MOL1         0.0993
      16    C5      20.032993   19.361423   20.624651 C.3        1 MOL1        -0.1313
      17    H11     20.833842   20.108406   20.532826 H          1 MOL1         0.0993
      18    H12     19.126743   19.901669   20.928548 H          1 MOL1         0.0993
      19    C6      19.785712   18.705699   19.249174 C.3        1 MOL1        -0.2328
      20    H13     18.969073   17.973907   19.301942 H          1 MOL1         0.1004
      21    H14     20.685192   18.188851   18.890023 H          1 MOL1         0.1004
      22    H15     19.512021   19.462407   18.502508 H          1 MOL1         0.1004
      23    C7      19.332708   18.244510   26.575533 C.3        1 MOL1        -0.0781
      24    H16     19.006276   17.684056   25.697186 H          1 MOL1         0.0978
      25    H17     19.699089   17.552692   27.337236 H          1 MOL1         0.0978
      26    H18     18.499273   18.825940   26.975671 H          1 MOL1         0.0978
@<TRIPOS>BOND
    1     1     2    1
    2     1     3    1
    3     1     4    1
    4     4     5    1
    5     4     6    1
    6     4     7    1
    7     7     8    1
    8     7     9    1
    9     7    10    1
   10    10    11    1
   11    10    12    1
   12    10    13    1
   13    13    14    1
   14    13    15    1
   15    13    16    1
   16    16    17    1
   17    16    18    1
   18    16    19    1
   19    19    20    1
   20    19    21    1
   21    19    22    1
   22     1    23    1
   23    23    24    1
   24    23    25    1
   25    23    26    1
@<TRIPOS>SUBSTRUCTURE
       1 MOL1            1 RESIDUE      1      MOL     
@<SCITEGIC>MOL_PROPERTY
VM2 Rank
SciTegic.value.IntegerValue
54

@<SCITEGIC>MOL_PROPERTY
Conf_Id
SciTegic.value.IntegerValue
1479

@<SCITEGIC>MOL_PROPERTY
Probability
SciTegic.value.DoubleValue
0.70

@<SCITEGIC>MOL_PROPERTY
Sum Probability
SciTegic.value.DoubleValue
82.97

@<SCITEGIC>MOL_PROPERTY
Delta G
SciTegic.value.DoubleValue
1.368

@<SCITEGIC>MOL_PROPERTY
G
SciTegic.value.DoubleValue
76.834

@<SCITEGIC>MOL_PROPERTY
E
SciTegic.value.DoubleValue
44.285

@<SCITEGIC>MOL_PROPERTY
-TS
SciTegic.value.DoubleValue
32.549

@<SCITEGIC>MOL_PROPERTY
U+W
SciTegic.value.DoubleValue
22.824

@<SCITEGIC>MOL_PROPERTY
U
SciTegic.value.DoubleValue
72.239

@<SCITEGIC>MOL_PROPERTY
W
SciTegic.value.DoubleValue
-49.415

@<SCITEGIC>MOL_PROPERTY
W(PB)
SciTegic.value.DoubleValue
-51.667

@<SCITEGIC>MOL_PROPERTY
W(SA)
SciTegic.value.DoubleValue
2.252

@<SCITEGIC>MOL_PROPERTY
Valence
SciTegic.value.DoubleValue
2.659

@<SCITEGIC>MOL_PROPERTY
Coulomb
SciTegic.value.DoubleValue
69.025

@<SCITEGIC>MOL_PROPERTY
VdW
SciTegic.value.DoubleValue
0.555

@<SCITEGIC>MOL_PROPERTY
VdW6
SciTegic.value.DoubleValue
-7.358

@<SCITEGIC>MOL_PROPERTY
VdW12
SciTegic.value.DoubleValue
7.913

@<SCITEGIC>MOL_PROPERTY
Bond
SciTegic.value.DoubleValue
0.229

@<SCITEGIC>MOL_PROPERTY
Angle
SciTegic.value.DoubleValue
0.883

@<SCITEGIC>MOL_PROPERTY
Pdih
SciTegic.value.DoubleValue
1.546

@<SCITEGIC>MOL_PROPERTY
Idih
SciTegic.value.DoubleValue
0.000

@<SCITEGIC>MOL_PROPERTY
Tether
SciTegic.value.DoubleValue
0.000

@<TRIPOS>MOLECULE
guest-s12_vm2.mol2 : vm2 ligand conformer 55
          26          25           1
SMALL
USER_CHARGES
 
@<TRIPOS>ATOM
       1    N1      20.892169   18.879096   25.492351 N.4        1 MOL1        -0.4857
       2    H1      21.379365   19.371742   24.729025 H          1 MOL1         0.3650
       3    H2      21.584207   18.211719   25.868448 H          1 MOL1         0.3650
       4    C1      19.697187   18.118185   24.940162 C.3        1 MOL1         0.0209
       5    H3      19.198757   17.628181   25.780353 H          1 MOL1         0.0967
       6    H4      20.083633   17.338081   24.279813 H          1 MOL1         0.0967
       7    C2      18.674786   18.977343   24.162010 C.3        1 MOL1        -0.1378
       8    H5      17.864072   18.324895   23.811794 H          1 MOL1         0.0993
       9    H6      18.207699   19.697410   24.846246 H          1 MOL1         0.0993
      10    C3      19.277494   19.736303   22.953191 C.3        1 MOL1        -0.1338
      11    H7      20.027749   20.458097   23.302980 H          1 MOL1         0.0993
      12    H8      18.481790   20.329264   22.481376 H          1 MOL1         0.0993
      13    C4      19.905309   18.797321   21.894999 C.3        1 MOL1        -0.1338
      14    H9      20.731384   18.226873   22.339917 H          1 MOL1         0.0993
      15    H10     19.155844   18.065186   21.563809 H          1 MOL1         0.0993
      16    C5      20.432756   19.581397   20.672722 C.3        1 MOL1        -0.1313
      17    H11     21.181512   20.317122   20.998309 H          1 MOL1         0.0993
      18    H12     19.611345   20.148220   20.212311 H          1 MOL1         0.0993
      19    C6      21.060745   18.644112   19.619167 C.3        1 MOL1        -0.2328
      20    H13     21.428502   19.218726   18.759172 H          1 MOL1         0.1004
      21    H14     20.325817   17.917434   19.249005 H          1 MOL1         0.1004
      22    H15     21.908772   18.088393   20.040131 H          1 MOL1         0.1004
      23    C7      20.467555   19.856244   26.582399 C.3        1 MOL1        -0.0781
      24    H16     21.353229   20.360498   26.975248 H          1 MOL1         0.0978
      25    H17     19.782466   20.593585   26.159134 H          1 MOL1         0.0978
      26    H18     19.970745   19.305441   27.383997 H          1 MOL1         0.0978
@<TRIPOS>BOND
    1     1     2    1
    2     1     3    1
    3     1     4    1
    4     4     5    1
    5     4     6    1
    6     4     7    1
    7     7     8    1
    8     7     9    1
    9     7    10    1
   10    10    11    1
   11    10    12    1
   12    10    13    1
   13    13    14    1
   14    13    15    1
   15    13    16    1
   16    16    17    1
   17    16    18    1
   18    16    19    1
   19    19    20    1
   20    19    21    1
   21    19    22    1
   22     1    23    1
   23    23    24    1
   24    23    25    1
   25    23    26    1
@<TRIPOS>SUBSTRUCTURE
       1 MOL1            1 RESIDUE      1      MOL     
@<SCITEGIC>MOL_PROPERTY
VM2 Rank
SciTegic.value.IntegerValue
55

@<SCITEGIC>MOL_PROPERTY
Conf_Id
SciTegic.value.IntegerValue
814

@<SCITEGIC>MOL_PROPERTY
Probability
SciTegic.value.DoubleValue
0.68

@<SCITEGIC>MOL_PROPERTY
Sum Probability
SciTegic.value.DoubleValue
83.65

@<SCITEGIC>MOL_PROPERTY
Delta G
SciTegic.value.DoubleValue
1.381

@<SCITEGIC>MOL_PROPERTY
G
SciTegic.value.DoubleValue
76.847

@<SCITEGIC>MOL_PROPERTY
E
SciTegic.value.DoubleValue
44.163

@<SCITEGIC>MOL_PROPERTY
-TS
SciTegic.value.DoubleValue
32.683

@<SCITEGIC>MOL_PROPERTY
U+W
SciTegic.value.DoubleValue
22.702

@<SCITEGIC>MOL_PROPERTY
U
SciTegic.value.DoubleValue
72.375

@<SCITEGIC>MOL_PROPERTY
W
SciTegic.value.DoubleValue
-49.673

@<SCITEGIC>MOL_PROPERTY
W(PB)
SciTegic.value.DoubleValue
-51.923

@<SCITEGIC>MOL_PROPERTY
W(SA)
SciTegic.value.DoubleValue
2.250

@<SCITEGIC>MOL_PROPERTY
Valence
SciTegic.value.DoubleValue
2.386

@<SCITEGIC>MOL_PROPERTY
Coulomb
SciTegic.value.DoubleValue
69.689

@<SCITEGIC>MOL_PROPERTY
VdW
SciTegic.value.DoubleValue
0.300

@<SCITEGIC>MOL_PROPERTY
VdW6
SciTegic.value.DoubleValue
-7.603

@<SCITEGIC>MOL_PROPERTY
VdW12
SciTegic.value.DoubleValue
7.903

@<SCITEGIC>MOL_PROPERTY
Bond
SciTegic.value.DoubleValue
0.210

@<SCITEGIC>MOL_PROPERTY
Angle
SciTegic.value.DoubleValue
0.753

@<SCITEGIC>MOL_PROPERTY
Pdih
SciTegic.value.DoubleValue
1.423

@<SCITEGIC>MOL_PROPERTY
Idih
SciTegic.value.DoubleValue
0.000

@<SCITEGIC>MOL_PROPERTY
Tether
SciTegic.value.DoubleValue
0.000

@<TRIPOS>MOLECULE
guest-s12_vm2.mol2 : vm2 ligand conformer 56
          26          25           1
SMALL
USER_CHARGES
 
@<TRIPOS>ATOM
       1    N1      19.487611   19.203353   26.361961 N.4        1 MOL1        -0.4857
       2    H1      19.137224   18.283420   26.670822 H          1 MOL1         0.3650
       3    H2      18.887094   19.892074   26.842543 H          1 MOL1         0.3650
       4    C1      19.326298   19.349204   24.858188 C.3        1 MOL1         0.0209
       5    H3      19.744377   20.316527   24.570092 H          1 MOL1         0.0967
       6    H4      18.254184   19.365599   24.646303 H          1 MOL1         0.0967
       7    C2      19.983106   18.222498   24.032296 C.3        1 MOL1        -0.1378
       8    H5      21.067828   18.216676   24.200178 H          1 MOL1         0.0993
       9    H6      19.605369   17.254159   24.386155 H          1 MOL1         0.0993
      10    C3      19.697932   18.348362   22.516939 C.3        1 MOL1        -0.1338
      11    H7      18.612492   18.340039   22.346316 H          1 MOL1         0.0993
      12    H8      20.098523   17.457033   22.016908 H          1 MOL1         0.0993
      13    C4      20.317698   19.621563   21.886303 C.3        1 MOL1        -0.1338
      14    H9      19.935898   20.511261   22.404218 H          1 MOL1         0.0993
      15    H10     21.405779   19.618611   22.038990 H          1 MOL1         0.0993
      16    C5      20.009163   19.774334   20.376905 C.3        1 MOL1        -0.1313
      17    H11     20.381656   20.751530   20.038911 H          1 MOL1         0.0993
      18    H12     18.921629   19.789585   20.219244 H          1 MOL1         0.0993
      19    C6      20.646469   18.670771   19.501852 C.3        1 MOL1        -0.2328
      20    H13     20.479218   18.880613   18.437462 H          1 MOL1         0.1004
      21    H14     20.213260   17.685701   19.714434 H          1 MOL1         0.1004
      22    H15     21.730368   18.613203   19.665679 H          1 MOL1         0.1004
      23    C7      20.939722   19.399915   26.782558 C.3        1 MOL1        -0.0781
      24    H16     21.558001   18.627936   26.320128 H          1 MOL1         0.0978
      25    H17     21.276214   20.387511   26.459667 H          1 MOL1         0.0978
      26    H18     21.010006   19.323784   27.869917 H          1 MOL1         0.0978
@<TRIPOS>BOND
    1     1     2    1
    2     1     3    1
    3     1     4    1
    4     4     5    1
    5     4     6    1
    6     4     7    1
    7     7     8    1
    8     7     9    1
    9     7    10    1
   10    10    11    1
   11    10    12    1
   12    10    13    1
   13    13    14    1
   14    13    15    1
   15    13    16    1
   16    16    17    1
   17    16    18    1
   18    16    19    1
   19    19    20    1
   20    19    21    1
   21    19    22    1
   22     1    23    1
   23    23    24    1
   24    23    25    1
   25    23    26    1
@<TRIPOS>SUBSTRUCTURE
       1 MOL1            1 RESIDUE      1      MOL     
@<SCITEGIC>MOL_PROPERTY
VM2 Rank
SciTegic.value.IntegerValue
56

@<SCITEGIC>MOL_PROPERTY
Conf_Id
SciTegic.value.IntegerValue
1607

@<SCITEGIC>MOL_PROPERTY
Probability
SciTegic.value.DoubleValue
0.65

@<SCITEGIC>MOL_PROPERTY
Sum Probability
SciTegic.value.DoubleValue
84.30

@<SCITEGIC>MOL_PROPERTY
Delta G
SciTegic.value.DoubleValue
1.413

@<SCITEGIC>MOL_PROPERTY
G
SciTegic.value.DoubleValue
76.879

@<SCITEGIC>MOL_PROPERTY
E
SciTegic.value.DoubleValue
44.365

@<SCITEGIC>MOL_PROPERTY
-TS
SciTegic.value.DoubleValue
32.514

@<SCITEGIC>MOL_PROPERTY
U+W
SciTegic.value.DoubleValue
22.903

@<SCITEGIC>MOL_PROPERTY
U
SciTegic.value.DoubleValue
72.180

@<SCITEGIC>MOL_PROPERTY
W
SciTegic.value.DoubleValue
-49.277

@<SCITEGIC>MOL_PROPERTY
W(PB)
SciTegic.value.DoubleValue
-51.573

@<SCITEGIC>MOL_PROPERTY
W(SA)
SciTegic.value.DoubleValue
2.296

@<SCITEGIC>MOL_PROPERTY
Valence
SciTegic.value.DoubleValue
2.842

@<SCITEGIC>MOL_PROPERTY
Coulomb
SciTegic.value.DoubleValue
68.728

@<SCITEGIC>MOL_PROPERTY
VdW
SciTegic.value.DoubleValue
0.610

@<SCITEGIC>MOL_PROPERTY
VdW6
SciTegic.value.DoubleValue
-7.185

@<SCITEGIC>MOL_PROPERTY
VdW12
SciTegic.value.DoubleValue
7.795

@<SCITEGIC>MOL_PROPERTY
Bond
SciTegic.value.DoubleValue
0.227

@<SCITEGIC>MOL_PROPERTY
Angle
SciTegic.value.DoubleValue
0.860

@<SCITEGIC>MOL_PROPERTY
Pdih
SciTegic.value.DoubleValue
1.755

@<SCITEGIC>MOL_PROPERTY
Idih
SciTegic.value.DoubleValue
0.000

@<SCITEGIC>MOL_PROPERTY
Tether
SciTegic.value.DoubleValue
0.000

@<TRIPOS>MOLECULE
guest-s12_vm2.mol2 : vm2 ligand conformer 57
          26          25           1
SMALL
USER_CHARGES
 
@<TRIPOS>ATOM
       1    N1      19.819005   18.399658   26.206850 N.4        1 MOL1        -0.4857
       2    H1      20.768068   18.034137   26.380364 H          1 MOL1         0.3650
       3    H2      19.183252   17.646058   26.513146 H          1 MOL1         0.3650
       4    C1      19.619632   18.661147   24.723273 C.3        1 MOL1         0.0209
       5    H3      18.623697   19.090179   24.587780 H          1 MOL1         0.0967
       6    H4      19.642932   17.691728   24.219901 H          1 MOL1         0.0967
       7    C2      20.680176   19.585219   24.087291 C.3        1 MOL1        -0.1378
       8    H5      20.660930   20.562321   24.586764 H          1 MOL1         0.0993
       9    H6      21.681395   19.166827   24.254900 H          1 MOL1         0.0993
      10    C3      20.452459   19.798333   22.572052 C.3        1 MOL1        -0.1338
      11    H7      21.186658   20.528509   22.204631 H          1 MOL1         0.0993
      12    H8      19.462197   20.247192   22.417872 H          1 MOL1         0.0993
      13    C4      20.578443   18.490857   21.749426 C.3        1 MOL1        -0.1338
      14    H9      21.531129   18.001904   21.995701 H          1 MOL1         0.0993
      15    H10     19.785660   17.786488   22.034733 H          1 MOL1         0.0993
      16    C5      20.525850   18.721025   20.219613 C.3        1 MOL1        -0.1313
      17    H11     20.722447   17.766224   19.712083 H          1 MOL1         0.0993
      18    H12     21.334585   19.401151   19.917625 H          1 MOL1         0.0993
      19    C6      19.169276   19.276312   19.728961 C.3        1 MOL1        -0.2328
      20    H13     18.340613   18.627539   20.041051 H          1 MOL1         0.1004
      21    H14     19.152881   19.337365   18.633093 H          1 MOL1         0.1004
      22    H15     18.981942   20.284866   20.117801 H          1 MOL1         0.1004
      23    C7      19.563158   19.657448   27.029533 C.3        1 MOL1        -0.0781
      24    H16     18.547171   20.010116   26.839186 H          1 MOL1         0.0978
      25    H17     19.678477   19.420353   28.089519 H          1 MOL1         0.0978
      26    H18     20.282543   20.428200   26.745963 H          1 MOL1         0.0978
@<TRIPOS>BOND
    1     1     2    1
    2     1     3    1
    3     1     4    1
    4     4     5    1
    5     4     6    1
    6     4     7    1
    7     7     8    1
    8     7     9    1
    9     7    10    1
   10    10    11    1
   11    10    12    1
   12    10    13    1
   13    13    14    1
   14    13    15    1
   15    13    16    1
   16    16    17    1
   17    16    18    1
   18    16    19    1
   19    19    20    1
   20    19    21    1
   21    19    22    1
   22     1    23    1
   23    23    24    1
   24    23    25    1
   25    23    26    1
@<TRIPOS>SUBSTRUCTURE
       1 MOL1            1 RESIDUE      1      MOL     
@<SCITEGIC>MOL_PROPERTY
VM2 Rank
SciTegic.value.IntegerValue
57

@<SCITEGIC>MOL_PROPERTY
Conf_Id
SciTegic.value.IntegerValue
1038

@<SCITEGIC>MOL_PROPERTY
Probability
SciTegic.value.DoubleValue
0.64

@<SCITEGIC>MOL_PROPERTY
Sum Probability
SciTegic.value.DoubleValue
84.94

@<SCITEGIC>MOL_PROPERTY
Delta G
SciTegic.value.DoubleValue
1.419

@<SCITEGIC>MOL_PROPERTY
G
SciTegic.value.DoubleValue
76.885

@<SCITEGIC>MOL_PROPERTY
E
SciTegic.value.DoubleValue
44.336

@<SCITEGIC>MOL_PROPERTY
-TS
SciTegic.value.DoubleValue
32.548

@<SCITEGIC>MOL_PROPERTY
U+W
SciTegic.value.DoubleValue
22.875

@<SCITEGIC>MOL_PROPERTY
U
SciTegic.value.DoubleValue
72.218

@<SCITEGIC>MOL_PROPERTY
W
SciTegic.value.DoubleValue
-49.343

@<SCITEGIC>MOL_PROPERTY
W(PB)
SciTegic.value.DoubleValue
-51.615

@<SCITEGIC>MOL_PROPERTY
W(SA)
SciTegic.value.DoubleValue
2.271

@<SCITEGIC>MOL_PROPERTY
Valence
SciTegic.value.DoubleValue
2.804

@<SCITEGIC>MOL_PROPERTY
Coulomb
SciTegic.value.DoubleValue
68.814

@<SCITEGIC>MOL_PROPERTY
VdW
SciTegic.value.DoubleValue
0.600

@<SCITEGIC>MOL_PROPERTY
VdW6
SciTegic.value.DoubleValue
-7.202

@<SCITEGIC>MOL_PROPERTY
VdW12
SciTegic.value.DoubleValue
7.802

@<SCITEGIC>MOL_PROPERTY
Bond
SciTegic.value.DoubleValue
0.224

@<SCITEGIC>MOL_PROPERTY
Angle
SciTegic.value.DoubleValue
0.821

@<SCITEGIC>MOL_PROPERTY
Pdih
SciTegic.value.DoubleValue
1.760

@<SCITEGIC>MOL_PROPERTY
Idih
SciTegic.value.DoubleValue
0.000

@<SCITEGIC>MOL_PROPERTY
Tether
SciTegic.value.DoubleValue
0.000

@<TRIPOS>MOLECULE
guest-s12_vm2.mol2 : vm2 ligand conformer 58
          26          25           1
SMALL
USER_CHARGES
 
@<TRIPOS>ATOM
       1    N1      20.209178   18.439321   26.220626 N.4        1 MOL1        -0.4857
       2    H1      20.960740   17.827156   26.576046 H          1 MOL1         0.3650
       3    H2      19.343513   17.888728   26.329740 H          1 MOL1         0.3650
       4    C1      20.455241   18.746371   24.752867 C.3        1 MOL1         0.0209
       5    H3      20.663001   17.795799   24.255930 H          1 MOL1         0.0967
       6    H4      21.351350   19.368164   24.684496 H          1 MOL1         0.0967
       7    C2      19.277547   19.442497   24.037615 C.3        1 MOL1        -0.1378
       8    H5      18.371832   18.829926   24.137721 H          1 MOL1         0.0993
       9    H6      19.064678   20.399895   24.530212 H          1 MOL1         0.0993
      10    C3      19.563193   19.707849   22.540541 C.3        1 MOL1        -0.1338
      11    H7      20.451140   20.347943   22.452836 H          1 MOL1         0.0993
      12    H8      18.724596   20.277877   22.117425 H          1 MOL1         0.0993
      13    C4      19.760869   18.407653   21.720478 C.3        1 MOL1        -0.1338
      14    H9      20.657246   17.875269   22.065607 H          1 MOL1         0.0993
      15    H10     18.911247   17.735208   21.902951 H          1 MOL1         0.0993
      16    C5      19.873018   18.654552   20.196490 C.3        1 MOL1        -0.1313
      17    H11     18.967139   19.160167   19.833783 H          1 MOL1         0.0993
      18    H12     19.908572   17.683349   19.683282 H          1 MOL1         0.0993
      19    C6      21.121070   19.474901   19.798027 C.3        1 MOL1        -0.2328
      20    H13     21.073981   20.497725   20.191836 H          1 MOL1         0.1004
      21    H14     21.201488   19.545807   18.705585 H          1 MOL1         0.1004
      22    H15     22.039404   19.003908   20.171948 H          1 MOL1         0.1004
      23    C7      20.147886   19.716856   27.050355 C.3        1 MOL1        -0.0781
      24    H16     20.008798   19.453680   28.101297 H          1 MOL1         0.0978
      25    H17     21.082670   20.268520   26.929187 H          1 MOL1         0.0978
      26    H18     19.309516   20.328755   26.711682 H          1 MOL1         0.0978
@<TRIPOS>BOND
    1     1     2    1
    2     1     3    1
    3     1     4    1
    4     4     5    1
    5     4     6    1
    6     4     7    1
    7     7     8    1
    8     7     9    1
    9     7    10    1
   10    10    11    1
   11    10    12    1
   12    10    13    1
   13    13    14    1
   14    13    15    1
   15    13    16    1
   16    16    17    1
   17    16    18    1
   18    16    19    1
   19    19    20    1
   20    19    21    1
   21    19    22    1
   22     1    23    1
   23    23    24    1
   24    23    25    1
   25    23    26    1
@<TRIPOS>SUBSTRUCTURE
       1 MOL1            1 RESIDUE      1      MOL     
@<SCITEGIC>MOL_PROPERTY
VM2 Rank
SciTegic.value.IntegerValue
58

@<SCITEGIC>MOL_PROPERTY
Conf_Id
SciTegic.value.IntegerValue
1083

@<SCITEGIC>MOL_PROPERTY
Probability
SciTegic.value.DoubleValue
0.62

@<SCITEGIC>MOL_PROPERTY
Sum Probability
SciTegic.value.DoubleValue
85.56

@<SCITEGIC>MOL_PROPERTY
Delta G
SciTegic.value.DoubleValue
1.440

@<SCITEGIC>MOL_PROPERTY
G
SciTegic.value.DoubleValue
76.906

@<SCITEGIC>MOL_PROPERTY
E
SciTegic.value.DoubleValue
44.357

@<SCITEGIC>MOL_PROPERTY
-TS
SciTegic.value.DoubleValue
32.549

@<SCITEGIC>MOL_PROPERTY
U+W
SciTegic.value.DoubleValue
22.895

@<SCITEGIC>MOL_PROPERTY
U
SciTegic.value.DoubleValue
72.218

@<SCITEGIC>MOL_PROPERTY
W
SciTegic.value.DoubleValue
-49.323

@<SCITEGIC>MOL_PROPERTY
W(PB)
SciTegic.value.DoubleValue
-51.598

@<SCITEGIC>MOL_PROPERTY
W(SA)
SciTegic.value.DoubleValue
2.275

@<SCITEGIC>MOL_PROPERTY
Valence
SciTegic.value.DoubleValue
2.805

@<SCITEGIC>MOL_PROPERTY
Coulomb
SciTegic.value.DoubleValue
68.814

@<SCITEGIC>MOL_PROPERTY
VdW
SciTegic.value.DoubleValue
0.600

@<SCITEGIC>MOL_PROPERTY
VdW6
SciTegic.value.DoubleValue
-7.202

@<SCITEGIC>MOL_PROPERTY
VdW12
SciTegic.value.DoubleValue
7.802

@<SCITEGIC>MOL_PROPERTY
Bond
SciTegic.value.DoubleValue
0.224

@<SCITEGIC>MOL_PROPERTY
Angle
SciTegic.value.DoubleValue
0.821

@<SCITEGIC>MOL_PROPERTY
Pdih
SciTegic.value.DoubleValue
1.760

@<SCITEGIC>MOL_PROPERTY
Idih
SciTegic.value.DoubleValue
0.000

@<SCITEGIC>MOL_PROPERTY
Tether
SciTegic.value.DoubleValue
0.000

@<TRIPOS>MOLECULE
guest-s12_vm2.mol2 : vm2 ligand conformer 59
          26          25           1
SMALL
USER_CHARGES
 
@<TRIPOS>ATOM
       1    N1      20.359907   19.292380   26.392879 N.4        1 MOL1        -0.4857
       2    H1      20.773893   20.084638   26.909463 H          1 MOL1         0.3650
       3    H2      20.866095   18.459861   26.732181 H          1 MOL1         0.3650
       4    C1      20.593637   19.478499   24.903128 C.3        1 MOL1         0.0209
       5    H3      21.652568   19.712380   24.766903 H          1 MOL1         0.0967
       6    H4      20.010262   20.343606   24.579448 H          1 MOL1         0.0967
       7    C2      20.237285   18.248365   24.041302 C.3        1 MOL1        -0.1378
       8    H5      20.776960   17.373688   24.427658 H          1 MOL1         0.0993
       9    H6      19.167025   18.022515   24.132810 H          1 MOL1         0.0993
      10    C3      20.596614   18.440064   22.548785 C.3        1 MOL1        -0.1338
      11    H7      20.420131   17.489858   22.028272 H          1 MOL1         0.0993
      12    H8      21.670637   18.652146   22.454673 H          1 MOL1         0.0993
      13    C4      19.778422   19.566540   21.867266 C.3        1 MOL1        -0.1338
      14    H9      18.705340   19.343109   21.943536 H          1 MOL1         0.0993
      15    H10     19.935776   20.511252   22.404225 H          1 MOL1         0.0993
      16    C5      20.154553   19.789132   20.382076 C.3        1 MOL1        -0.1313
      17    H11     21.225004   20.024364   20.300699 H          1 MOL1         0.0993
      18    H12     19.617316   20.673597   20.011942 H          1 MOL1         0.0993
      19    C6      19.815457   18.586054   19.472490 C.3        1 MOL1        -0.2328
      20    H13     20.422370   17.707009   19.721814 H          1 MOL1         0.1004
      21    H14     20.010931   18.832898   18.420925 H          1 MOL1         0.1004
      22    H15     18.756660   18.310054   19.560587 H          1 MOL1         0.1004
      23    C7      18.872125   19.188966   26.709075 C.3        1 MOL1        -0.0781
      24    H16     18.366831   20.090620   26.356189 H          1 MOL1         0.0978
      25    H17     18.456324   18.311408   26.210013 H          1 MOL1         0.0978
      26    H18     18.742474   19.092545   27.789343 H          1 MOL1         0.0978
@<TRIPOS>BOND
    1     1     2    1
    2     1     3    1
    3     1     4    1
    4     4     5    1
    5     4     6    1
    6     4     7    1
    7     7     8    1
    8     7     9    1
    9     7    10    1
   10    10    11    1
   11    10    12    1
   12    10    13    1
   13    13    14    1
   14    13    15    1
   15    13    16    1
   16    16    17    1
   17    16    18    1
   18    16    19    1
   19    19    20    1
   20    19    21    1
   21    19    22    1
   22     1    23    1
   23    23    24    1
   24    23    25    1
   25    23    26    1
@<TRIPOS>SUBSTRUCTURE
       1 MOL1            1 RESIDUE      1      MOL     
@<SCITEGIC>MOL_PROPERTY
VM2 Rank
SciTegic.value.IntegerValue
59

@<SCITEGIC>MOL_PROPERTY
Conf_Id
SciTegic.value.IntegerValue
1020

@<SCITEGIC>MOL_PROPERTY
Probability
SciTegic.value.DoubleValue
0.57

@<SCITEGIC>MOL_PROPERTY
Sum Probability
SciTegic.value.DoubleValue
86.12

@<SCITEGIC>MOL_PROPERTY
Delta G
SciTegic.value.DoubleValue
1.493

@<SCITEGIC>MOL_PROPERTY
G
SciTegic.value.DoubleValue
76.959

@<SCITEGIC>MOL_PROPERTY
E
SciTegic.value.DoubleValue
44.446

@<SCITEGIC>MOL_PROPERTY
-TS
SciTegic.value.DoubleValue
32.514

@<SCITEGIC>MOL_PROPERTY
U+W
SciTegic.value.DoubleValue
22.984

@<SCITEGIC>MOL_PROPERTY
U
SciTegic.value.DoubleValue
72.180

@<SCITEGIC>MOL_PROPERTY
W
SciTegic.value.DoubleValue
-49.196

@<SCITEGIC>MOL_PROPERTY
W(PB)
SciTegic.value.DoubleValue
-51.484

@<SCITEGIC>MOL_PROPERTY
W(SA)
SciTegic.value.DoubleValue
2.287

@<SCITEGIC>MOL_PROPERTY
Valence
SciTegic.value.DoubleValue
2.842

@<SCITEGIC>MOL_PROPERTY
Coulomb
SciTegic.value.DoubleValue
68.728

@<SCITEGIC>MOL_PROPERTY
VdW
SciTegic.value.DoubleValue
0.610

@<SCITEGIC>MOL_PROPERTY
VdW6
SciTegic.value.DoubleValue
-7.185

@<SCITEGIC>MOL_PROPERTY
VdW12
SciTegic.value.DoubleValue
7.795

@<SCITEGIC>MOL_PROPERTY
Bond
SciTegic.value.DoubleValue
0.227

@<SCITEGIC>MOL_PROPERTY
Angle
SciTegic.value.DoubleValue
0.860

@<SCITEGIC>MOL_PROPERTY
Pdih
SciTegic.value.DoubleValue
1.755

@<SCITEGIC>MOL_PROPERTY
Idih
SciTegic.value.DoubleValue
0.000

@<SCITEGIC>MOL_PROPERTY
Tether
SciTegic.value.DoubleValue
0.000

@<TRIPOS>MOLECULE
guest-s12_vm2.mol2 : vm2 ligand conformer 60
          26          25           1
SMALL
USER_CHARGES
 
@<TRIPOS>ATOM
       1    N1      20.032218   19.026937   26.294704 N.4        1 MOL1        -0.4857
       2    H1      20.860439   18.428329   26.436604 H          1 MOL1         0.3650
       3    H2      19.429268   18.845383   27.112885 H          1 MOL1         0.3650
       4    C1      19.301910   18.621126   25.025388 C.3        1 MOL1         0.0209
       5    H3      18.458360   19.302621   24.889879 H          1 MOL1         0.0967
       6    H4      18.903393   17.616358   25.187467 H          1 MOL1         0.0967
       7    C2      20.178765   18.613413   23.756782 C.3        1 MOL1        -0.1378
       8    H5      20.560756   19.624866   23.572863 H          1 MOL1         0.0993
       9    H6      21.048047   17.962558   23.918530 H          1 MOL1         0.0993
      10    C3      19.381661   18.121165   22.526049 C.3        1 MOL1        -0.1338
      11    H7      18.533443   18.793473   22.340119 H          1 MOL1         0.0993
      12    H8      18.943529   17.139527   22.754010 H          1 MOL1         0.0993
      13    C4      20.241500   17.985772   21.242480 C.3        1 MOL1        -0.1338
      14    H9      21.015641   17.224206   21.409696 H          1 MOL1         0.0993
      15    H10     19.607801   17.596432   20.433730 H          1 MOL1         0.0993
      16    C5      20.922615   19.292102   20.759743 C.3        1 MOL1        -0.1313
      17    H11     21.496868   19.070726   19.849247 H          1 MOL1         0.0993
      18    H12     21.657351   19.633942   21.500966 H          1 MOL1         0.0993
      19    C6      19.922936   20.430215   20.452582 C.3        1 MOL1        -0.2328
      20    H13     19.407202   20.768591   21.359856 H          1 MOL1         0.1004
      21    H14     19.165990   20.105492   19.726963 H          1 MOL1         0.1004
      22    H15     20.445561   21.296791   20.027425 H          1 MOL1         0.1004
      23    C7      20.426395   20.499270   26.259272 C.3        1 MOL1        -0.0781
      24    H16     19.529187   21.107731   26.126476 H          1 MOL1         0.0978
      25    H17     20.913340   20.761279   27.201252 H          1 MOL1         0.0978
      26    H18     21.116131   20.669554   25.430243 H          1 MOL1         0.0978
@<TRIPOS>BOND
    1     1     2    1
    2     1     3    1
    3     1     4    1
    4     4     5    1
    5     4     6    1
    6     4     7    1
    7     7     8    1
    8     7     9    1
    9     7    10    1
   10    10    11    1
   11    10    12    1
   12    10    13    1
   13    13    14    1
   14    13    15    1
   15    13    16    1
   16    16    17    1
   17    16    18    1
   18    16    19    1
   19    19    20    1
   20    19    21    1
   21    19    22    1
   22     1    23    1
   23    23    24    1
   24    23    25    1
   25    23    26    1
@<TRIPOS>SUBSTRUCTURE
       1 MOL1            1 RESIDUE      1      MOL     
@<SCITEGIC>MOL_PROPERTY
VM2 Rank
SciTegic.value.IntegerValue
60

@<SCITEGIC>MOL_PROPERTY
Conf_Id
SciTegic.value.IntegerValue
1536

@<SCITEGIC>MOL_PROPERTY
Probability
SciTegic.value.DoubleValue
0.54

@<SCITEGIC>MOL_PROPERTY
Sum Probability
SciTegic.value.DoubleValue
86.66

@<SCITEGIC>MOL_PROPERTY
Delta G
SciTegic.value.DoubleValue
1.520

@<SCITEGIC>MOL_PROPERTY
G
SciTegic.value.DoubleValue
76.986

@<SCITEGIC>MOL_PROPERTY
E
SciTegic.value.DoubleValue
44.220

@<SCITEGIC>MOL_PROPERTY
-TS
SciTegic.value.DoubleValue
32.766

@<SCITEGIC>MOL_PROPERTY
U+W
SciTegic.value.DoubleValue
22.758

@<SCITEGIC>MOL_PROPERTY
U
SciTegic.value.DoubleValue
72.216

@<SCITEGIC>MOL_PROPERTY
W
SciTegic.value.DoubleValue
-49.458

@<SCITEGIC>MOL_PROPERTY
W(PB)
SciTegic.value.DoubleValue
-51.693

@<SCITEGIC>MOL_PROPERTY
W(SA)
SciTegic.value.DoubleValue
2.234

@<SCITEGIC>MOL_PROPERTY
Valence
SciTegic.value.DoubleValue
2.957

@<SCITEGIC>MOL_PROPERTY
Coulomb
SciTegic.value.DoubleValue
68.763

@<SCITEGIC>MOL_PROPERTY
VdW
SciTegic.value.DoubleValue
0.496

@<SCITEGIC>MOL_PROPERTY
VdW6
SciTegic.value.DoubleValue
-7.593

@<SCITEGIC>MOL_PROPERTY
VdW12
SciTegic.value.DoubleValue
8.090

@<SCITEGIC>MOL_PROPERTY
Bond
SciTegic.value.DoubleValue
0.242

@<SCITEGIC>MOL_PROPERTY
Angle
SciTegic.value.DoubleValue
1.123

@<SCITEGIC>MOL_PROPERTY
Pdih
SciTegic.value.DoubleValue
1.593

@<SCITEGIC>MOL_PROPERTY
Idih
SciTegic.value.DoubleValue
0.000

@<SCITEGIC>MOL_PROPERTY
Tether
SciTegic.value.DoubleValue
0.000

@<TRIPOS>MOLECULE
guest-s12_vm2.mol2 : vm2 ligand conformer 61
          26          25           1
SMALL
USER_CHARGES
 
@<TRIPOS>ATOM
       1    N1      19.870868   18.298474   26.126111 N.4        1 MOL1        -0.4857
       2    H1      20.440785   17.864513   26.869630 H          1 MOL1         0.3650
       3    H2      19.248185   17.545685   25.794542 H          1 MOL1         0.3650
       4    C1      20.776655   18.766037   24.999085 C.3        1 MOL1         0.0209
       5    H3      21.439084   17.933542   24.748503 H          1 MOL1         0.0967
       6    H4      21.391320   19.585755   25.379377 H          1 MOL1         0.0967
       7    C2      20.033453   19.215397   23.724705 C.3        1 MOL1        -0.1378
       8    H5      19.381118   18.400619   23.386497 H          1 MOL1         0.0993
       9    H6      19.388639   20.073505   23.953727 H          1 MOL1         0.0993
      10    C3      21.025638   19.601332   22.602649 C.3        1 MOL1        -0.1338
      11    H7      21.644426   18.733239   22.338962 H          1 MOL1         0.0993
      12    H8      21.720490   20.360863   22.987176 H          1 MOL1         0.0993
      13    C4      20.337914   20.167003   21.332935 C.3        1 MOL1        -0.1338
      14    H9      19.817011   21.098607   21.593737 H          1 MOL1         0.0993
      15    H10     21.114018   20.450259   20.608598 H          1 MOL1         0.0993
      16    C5      19.333122   19.210171   20.641439 C.3        1 MOL1        -0.1313
      17    H11     18.914262   19.719468   19.762264 H          1 MOL1         0.0993
      18    H12     18.481299   19.009430   21.304920 H          1 MOL1         0.0993
      19    C6      19.967083   17.875583   20.187621 C.3        1 MOL1        -0.2328
      20    H13     20.295979   17.274419   21.044371 H          1 MOL1         0.1004
      21    H14     20.833748   18.051329   19.537280 H          1 MOL1         0.1004
      22    H15     19.240270   17.276668   19.623798 H          1 MOL1         0.1004
      23    C7      19.063268   19.456002   26.702455 C.3        1 MOL1        -0.0781
      24    H16     18.415459   19.867390   25.925829 H          1 MOL1         0.0978
      25    H17     18.454359   19.088696   27.531552 H          1 MOL1         0.0978
      26    H18     19.748001   20.227409   27.061498 H          1 MOL1         0.0978
@<TRIPOS>BOND
    1     1     2    1
    2     1     3    1
    3     1     4    1
    4     4     5    1
    5     4     6    1
    6     4     7    1
    7     7     8    1
    8     7     9    1
    9     7    10    1
   10    10    11    1
   11    10    12    1
   12    10    13    1
   13    13    14    1
   14    13    15    1
   15    13    16    1
   16    16    17    1
   17    16    18    1
   18    16    19    1
   19    19    20    1
   20    19    21    1
   21    19    22    1
   22     1    23    1
   23    23    24    1
   24    23    25    1
   25    23    26    1
@<TRIPOS>SUBSTRUCTURE
       1 MOL1            1 RESIDUE      1      MOL     
@<SCITEGIC>MOL_PROPERTY
VM2 Rank
SciTegic.value.IntegerValue
61

@<SCITEGIC>MOL_PROPERTY
Conf_Id
SciTegic.value.IntegerValue
957

@<SCITEGIC>MOL_PROPERTY
Probability
SciTegic.value.DoubleValue
0.52

@<SCITEGIC>MOL_PROPERTY
Sum Probability
SciTegic.value.DoubleValue
87.19

@<SCITEGIC>MOL_PROPERTY
Delta G
SciTegic.value.DoubleValue
1.539

@<SCITEGIC>MOL_PROPERTY
G
SciTegic.value.DoubleValue
77.005

@<SCITEGIC>MOL_PROPERTY
E
SciTegic.value.DoubleValue
44.245

@<SCITEGIC>MOL_PROPERTY
-TS
SciTegic.value.DoubleValue
32.760

@<SCITEGIC>MOL_PROPERTY
U+W
SciTegic.value.DoubleValue
22.783

@<SCITEGIC>MOL_PROPERTY
U
SciTegic.value.DoubleValue
72.256

@<SCITEGIC>MOL_PROPERTY
W
SciTegic.value.DoubleValue
-49.473

@<SCITEGIC>MOL_PROPERTY
W(PB)
SciTegic.value.DoubleValue
-51.710

@<SCITEGIC>MOL_PROPERTY
W(SA)
SciTegic.value.DoubleValue
2.237

@<SCITEGIC>MOL_PROPERTY
Valence
SciTegic.value.DoubleValue
2.959

@<SCITEGIC>MOL_PROPERTY
Coulomb
SciTegic.value.DoubleValue
68.783

@<SCITEGIC>MOL_PROPERTY
VdW
SciTegic.value.DoubleValue
0.513

@<SCITEGIC>MOL_PROPERTY
VdW6
SciTegic.value.DoubleValue
-7.552

@<SCITEGIC>MOL_PROPERTY
VdW12
SciTegic.value.DoubleValue
8.065

@<SCITEGIC>MOL_PROPERTY
Bond
SciTegic.value.DoubleValue
0.240

@<SCITEGIC>MOL_PROPERTY
Angle
SciTegic.value.DoubleValue
1.124

@<SCITEGIC>MOL_PROPERTY
Pdih
SciTegic.value.DoubleValue
1.594

@<SCITEGIC>MOL_PROPERTY
Idih
SciTegic.value.DoubleValue
0.000

@<SCITEGIC>MOL_PROPERTY
Tether
SciTegic.value.DoubleValue
0.000

@<TRIPOS>MOLECULE
guest-s12_vm2.mol2 : vm2 ligand conformer 62
          26          25           1
SMALL
USER_CHARGES
 
@<TRIPOS>ATOM
       1    N1      19.868068   19.010563   26.288900 N.4        1 MOL1        -0.4857
       2    H1      20.436249   18.946539   27.148551 H          1 MOL1         0.3650
       3    H2      19.167127   18.258647   26.376760 H          1 MOL1         0.3650
       4    C1      20.751388   18.766381   25.076745 C.3        1 MOL1         0.0209
       5    H3      21.328784   17.859426   25.273439 H          1 MOL1         0.0967
       6    H4      21.450518   19.602469   24.995819 H          1 MOL1         0.0967
       7    C2      19.984502   18.593875   23.749937 C.3        1 MOL1        -0.1378
       8    H5      19.252285   17.782553   23.855013 H          1 MOL1         0.0993
       9    H6      19.423495   19.510825   23.532566 H          1 MOL1         0.0993
      10    C3      20.947559   18.277927   22.581571 C.3        1 MOL1        -0.1338
      11    H7      21.554341   17.400918   22.846540 H          1 MOL1         0.0993
      12    H8      21.656737   19.106192   22.450858 H          1 MOL1         0.0993
      13    C4      20.223679   17.983985   21.241871 C.3        1 MOL1        -0.1338
      14    H9      20.977023   17.733492   20.482290 H          1 MOL1         0.0993
      15    H10     19.605852   17.083079   21.359751 H          1 MOL1         0.0993
      16    C5      19.332984   19.132969   20.703400 C.3        1 MOL1        -0.1313
      17    H11     18.494968   19.317359   21.388844 H          1 MOL1         0.0993
      18    H12     18.879234   18.808687   19.756443 H          1 MOL1         0.0993
      19    C6      20.106584   20.448600   20.459136 C.3        1 MOL1        -0.2328
      20    H13     20.961833   20.285265   19.790699 H          1 MOL1         0.1004
      21    H14     20.480182   20.876004   21.397952 H          1 MOL1         0.1004
      22    H15     19.453878   21.197519   19.992291 H          1 MOL1         0.1004
      23    C7      19.193236   20.375701   26.215440 C.3        1 MOL1        -0.0781
      24    H16     18.543115   20.411489   25.339037 H          1 MOL1         0.0978
      25    H17     18.599358   20.529498   27.119181 H          1 MOL1         0.0978
      26    H18     19.959022   21.150889   26.141300 H          1 MOL1         0.0978
@<TRIPOS>BOND
    1     1     2    1
    2     1     3    1
    3     1     4    1
    4     4     5    1
    5     4     6    1
    6     4     7    1
    7     7     8    1
    8     7     9    1
    9     7    10    1
   10    10    11    1
   11    10    12    1
   12    10    13    1
   13    13    14    1
   14    13    15    1
   15    13    16    1
   16    16    17    1
   17    16    18    1
   18    16    19    1
   19    19    20    1
   20    19    21    1
   21    19    22    1
   22     1    23    1
   23    23    24    1
   24    23    25    1
   25    23    26    1
@<TRIPOS>SUBSTRUCTURE
       1 MOL1            1 RESIDUE      1      MOL     
@<SCITEGIC>MOL_PROPERTY
VM2 Rank
SciTegic.value.IntegerValue
62

@<SCITEGIC>MOL_PROPERTY
Conf_Id
SciTegic.value.IntegerValue
1467

@<SCITEGIC>MOL_PROPERTY
Probability
SciTegic.value.DoubleValue
0.51

@<SCITEGIC>MOL_PROPERTY
Sum Probability
SciTegic.value.DoubleValue
87.69

@<SCITEGIC>MOL_PROPERTY
Delta G
SciTegic.value.DoubleValue
1.555

@<SCITEGIC>MOL_PROPERTY
G
SciTegic.value.DoubleValue
77.021

@<SCITEGIC>MOL_PROPERTY
E
SciTegic.value.DoubleValue
44.255

@<SCITEGIC>MOL_PROPERTY
-TS
SciTegic.value.DoubleValue
32.766

@<SCITEGIC>MOL_PROPERTY
U+W
SciTegic.value.DoubleValue
22.794

@<SCITEGIC>MOL_PROPERTY
U
SciTegic.value.DoubleValue
72.216

@<SCITEGIC>MOL_PROPERTY
W
SciTegic.value.DoubleValue
-49.423

@<SCITEGIC>MOL_PROPERTY
W(PB)
SciTegic.value.DoubleValue
-51.678

@<SCITEGIC>MOL_PROPERTY
W(SA)
SciTegic.value.DoubleValue
2.255

@<SCITEGIC>MOL_PROPERTY
Valence
SciTegic.value.DoubleValue
2.957

@<SCITEGIC>MOL_PROPERTY
Coulomb
SciTegic.value.DoubleValue
68.762

@<SCITEGIC>MOL_PROPERTY
VdW
SciTegic.value.DoubleValue
0.497

@<SCITEGIC>MOL_PROPERTY
VdW6
SciTegic.value.DoubleValue
-7.593

@<SCITEGIC>MOL_PROPERTY
VdW12
SciTegic.value.DoubleValue
8.090

@<SCITEGIC>MOL_PROPERTY
Bond
SciTegic.value.DoubleValue
0.242

@<SCITEGIC>MOL_PROPERTY
Angle
SciTegic.value.DoubleValue
1.123

@<SCITEGIC>MOL_PROPERTY
Pdih
SciTegic.value.DoubleValue
1.593

@<SCITEGIC>MOL_PROPERTY
Idih
SciTegic.value.DoubleValue
0.000

@<SCITEGIC>MOL_PROPERTY
Tether
SciTegic.value.DoubleValue
0.000

@<TRIPOS>MOLECULE
guest-s12_vm2.mol2 : vm2 ligand conformer 63
          26          25           1
SMALL
USER_CHARGES
 
@<TRIPOS>ATOM
       1    N1      19.839522   18.114007   25.782607 N.4        1 MOL1        -0.4857
       2    H1      20.411663   17.304060   26.069855 H          1 MOL1         0.3650
       3    H2      18.931922   17.712504   25.500959 H          1 MOL1         0.3650
       4    C1      20.497313   18.807412   24.601261 C.3        1 MOL1         0.0209
       5    H3      20.745930   18.033172   23.871408 H          1 MOL1         0.0967
       6    H4      21.430042   19.256977   24.950813 H          1 MOL1         0.0967
       7    C2      19.621653   19.879343   23.918054 C.3        1 MOL1        -0.1378
       8    H5      18.668603   19.433825   23.606345 H          1 MOL1         0.0993
       9    H6      19.370387   20.663033   24.644135 H          1 MOL1         0.0993
      10    C3      20.321702   20.539532   22.703780 C.3        1 MOL1        -0.1338
      11    H7      21.201361   21.093847   23.059335 H          1 MOL1         0.0993
      12    H8      19.647751   21.290733   22.269294 H          1 MOL1         0.0993
      13    C4      20.770222   19.556209   21.591436 C.3        1 MOL1        -0.1338
      14    H9      21.268226   20.133668   20.800281 H          1 MOL1         0.0993
      15    H10     21.529168   18.865708   21.983010 H          1 MOL1         0.0993
      16    C5      19.604923   18.751874   20.968005 C.3        1 MOL1        -0.1313
      17    H11     18.825985   19.441366   20.613576 H          1 MOL1         0.0993
      18    H12     19.139839   18.108484   21.726741 H          1 MOL1         0.0993
      19    C6      20.084022   17.873098   19.792854 C.3        1 MOL1        -0.2328
      20    H13     19.246041   17.307918   19.364642 H          1 MOL1         0.1004
      21    H14     20.842832   17.151775   20.123129 H          1 MOL1         0.1004
      22    H15     20.519997   18.485814   18.993050 H          1 MOL1         0.1004
      23    C7      19.668643   19.068525   26.959003 C.3        1 MOL1        -0.0781
      24    H16     19.008886   19.888102   26.667468 H          1 MOL1         0.0978
      25    H17     19.229575   18.525252   27.798734 H          1 MOL1         0.0978
      26    H18     20.645885   19.462965   27.245780 H          1 MOL1         0.0978
@<TRIPOS>BOND
    1     1     2    1
    2     1     3    1
    3     1     4    1
    4     4     5    1
    5     4     6    1
    6     4     7    1
    7     7     8    1
    8     7     9    1
    9     7    10    1
   10    10    11    1
   11    10    12    1
   12    10    13    1
   13    13    14    1
   14    13    15    1
   15    13    16    1
   16    16    17    1
   17    16    18    1
   18    16    19    1
   19    19    20    1
   20    19    21    1
   21    19    22    1
   22     1    23    1
   23    23    24    1
   24    23    25    1
   25    23    26    1
@<TRIPOS>SUBSTRUCTURE
       1 MOL1            1 RESIDUE      1      MOL     
@<SCITEGIC>MOL_PROPERTY
VM2 Rank
SciTegic.value.IntegerValue
63

@<SCITEGIC>MOL_PROPERTY
Conf_Id
SciTegic.value.IntegerValue
1532

@<SCITEGIC>MOL_PROPERTY
Probability
SciTegic.value.DoubleValue
0.50

@<SCITEGIC>MOL_PROPERTY
Sum Probability
SciTegic.value.DoubleValue
88.20

@<SCITEGIC>MOL_PROPERTY
Delta G
SciTegic.value.DoubleValue
1.560

@<SCITEGIC>MOL_PROPERTY
G
SciTegic.value.DoubleValue
77.026

@<SCITEGIC>MOL_PROPERTY
E
SciTegic.value.DoubleValue
44.354

@<SCITEGIC>MOL_PROPERTY
-TS
SciTegic.value.DoubleValue
32.673

@<SCITEGIC>MOL_PROPERTY
U+W
SciTegic.value.DoubleValue
22.892

@<SCITEGIC>MOL_PROPERTY
U
SciTegic.value.DoubleValue
72.548

@<SCITEGIC>MOL_PROPERTY
W
SciTegic.value.DoubleValue
-49.656

@<SCITEGIC>MOL_PROPERTY
W(PB)
SciTegic.value.DoubleValue
-51.921

@<SCITEGIC>MOL_PROPERTY
W(SA)
SciTegic.value.DoubleValue
2.265

@<SCITEGIC>MOL_PROPERTY
Valence
SciTegic.value.DoubleValue
2.777

@<SCITEGIC>MOL_PROPERTY
Coulomb
SciTegic.value.DoubleValue
69.321

@<SCITEGIC>MOL_PROPERTY
VdW
SciTegic.value.DoubleValue
0.450

@<SCITEGIC>MOL_PROPERTY
VdW6
SciTegic.value.DoubleValue
-7.543

@<SCITEGIC>MOL_PROPERTY
VdW12
SciTegic.value.DoubleValue
7.993

@<SCITEGIC>MOL_PROPERTY
Bond
SciTegic.value.DoubleValue
0.232

@<SCITEGIC>MOL_PROPERTY
Angle
SciTegic.value.DoubleValue
0.994

@<SCITEGIC>MOL_PROPERTY
Pdih
SciTegic.value.DoubleValue
1.552

@<SCITEGIC>MOL_PROPERTY
Idih
SciTegic.value.DoubleValue
0.000

@<SCITEGIC>MOL_PROPERTY
Tether
SciTegic.value.DoubleValue
0.000

@<TRIPOS>MOLECULE
guest-s12_vm2.mol2 : vm2 ligand conformer 64
          26          25           1
SMALL
USER_CHARGES
 
@<TRIPOS>ATOM
       1    N1      20.278200   18.159133   25.798149 N.4        1 MOL1        -0.4857
       2    H1      21.265884   17.952526   25.583536 H          1 MOL1         0.3650
       3    H2      19.863988   17.247761   26.050540 H          1 MOL1         0.3650
       4    C1      19.577423   18.712795   24.568740 C.3        1 MOL1         0.0209
       5    H3      18.550667   18.960824   24.848975 H          1 MOL1         0.0967
       6    H4      19.543052   17.909445   23.828881 H          1 MOL1         0.0967
       7    C2      20.262451   19.945247   23.940741 C.3        1 MOL1        -0.1378
       8    H5      20.297691   20.758427   24.676942 H          1 MOL1         0.0993
       9    H6      21.305603   19.705066   23.699702 H          1 MOL1         0.0993
      10    C3      19.529497   20.457991   22.675732 C.3        1 MOL1        -0.1338
      11    H7      20.065304   21.333667   22.284081 H          1 MOL1         0.0993
      12    H8      18.532805   20.819240   22.964848 H          1 MOL1         0.0993
      13    C4      19.369325   19.412033   21.541836 C.3        1 MOL1        -0.1338
      14    H9      18.741201   18.578790   21.884301 H          1 MOL1         0.0993
      15    H10     18.820882   19.881806   20.713635 H          1 MOL1         0.0993
      16    C5      20.714582   18.866059   21.007293 C.3        1 MOL1        -0.1313
      17    H11     21.246536   18.325245   21.801320 H          1 MOL1         0.0993
      18    H12     21.359852   19.702116   20.703322 H          1 MOL1         0.0993
      19    C6      20.507697   17.916726   19.807824 C.3        1 MOL1        -0.2328
      20    H13     19.890250   17.053773   20.089344 H          1 MOL1         0.1004
      21    H14     21.470994   17.536921   19.443389 H          1 MOL1         0.1004
      22    H15     20.013282   18.433724   18.975089 H          1 MOL1         0.1004
      23    C7      20.168825   19.120016   26.976686 C.3        1 MOL1        -0.0781
      24    H16     19.114202   19.305556   27.191562 H          1 MOL1         0.0978
      25    H17     20.649315   18.671322   27.848969 H          1 MOL1         0.0978
      26    H18     20.666989   20.058636   26.726083 H          1 MOL1         0.0978
@<TRIPOS>BOND
    1     1     2    1
    2     1     3    1
    3     1     4    1
    4     4     5    1
    5     4     6    1
    6     4     7    1
    7     7     8    1
    8     7     9    1
    9     7    10    1
   10    10    11    1
   11    10    12    1
   12    10    13    1
   13    13    14    1
   14    13    15    1
   15    13    16    1
   16    16    17    1
   17    16    18    1
   18    16    19    1
   19    19    20    1
   20    19    21    1
   21    19    22    1
   22     1    23    1
   23    23    24    1
   24    23    25    1
   25    23    26    1
@<TRIPOS>SUBSTRUCTURE
       1 MOL1            1 RESIDUE      1      MOL     
@<SCITEGIC>MOL_PROPERTY
VM2 Rank
SciTegic.value.IntegerValue
64

@<SCITEGIC>MOL_PROPERTY
Conf_Id
SciTegic.value.IntegerValue
862

@<SCITEGIC>MOL_PROPERTY
Probability
SciTegic.value.DoubleValue
0.50

@<SCITEGIC>MOL_PROPERTY
Sum Probability
SciTegic.value.DoubleValue
88.70

@<SCITEGIC>MOL_PROPERTY
Delta G
SciTegic.value.DoubleValue
1.565

@<SCITEGIC>MOL_PROPERTY
G
SciTegic.value.DoubleValue
77.031

@<SCITEGIC>MOL_PROPERTY
E
SciTegic.value.DoubleValue
44.359

@<SCITEGIC>MOL_PROPERTY
-TS
SciTegic.value.DoubleValue
32.672

@<SCITEGIC>MOL_PROPERTY
U+W
SciTegic.value.DoubleValue
22.897

@<SCITEGIC>MOL_PROPERTY
U
SciTegic.value.DoubleValue
72.548

@<SCITEGIC>MOL_PROPERTY
W
SciTegic.value.DoubleValue
-49.651

@<SCITEGIC>MOL_PROPERTY
W(PB)
SciTegic.value.DoubleValue
-51.930

@<SCITEGIC>MOL_PROPERTY
W(SA)
SciTegic.value.DoubleValue
2.279

@<SCITEGIC>MOL_PROPERTY
Valence
SciTegic.value.DoubleValue
2.777

@<SCITEGIC>MOL_PROPERTY
Coulomb
SciTegic.value.DoubleValue
69.321

@<SCITEGIC>MOL_PROPERTY
VdW
SciTegic.value.DoubleValue
0.451

@<SCITEGIC>MOL_PROPERTY
VdW6
SciTegic.value.DoubleValue
-7.543

@<SCITEGIC>MOL_PROPERTY
VdW12
SciTegic.value.DoubleValue
7.993

@<SCITEGIC>MOL_PROPERTY
Bond
SciTegic.value.DoubleValue
0.232

@<SCITEGIC>MOL_PROPERTY
Angle
SciTegic.value.DoubleValue
0.994

@<SCITEGIC>MOL_PROPERTY
Pdih
SciTegic.value.DoubleValue
1.552

@<SCITEGIC>MOL_PROPERTY
Idih
SciTegic.value.DoubleValue
0.000

@<SCITEGIC>MOL_PROPERTY
Tether
SciTegic.value.DoubleValue
0.000

@<TRIPOS>MOLECULE
guest-s12_vm2.mol2 : vm2 ligand conformer 65
          26          25           1
SMALL
USER_CHARGES
 
@<TRIPOS>ATOM
       1    N1      20.185358   18.330706   26.137217 N.4        1 MOL1        -0.4857
       2    H1      20.969142   17.721897   25.855442 H          1 MOL1         0.3650
       3    H2      19.664493   17.785110   26.842179 H          1 MOL1         0.3650
       4    C1      19.284772   18.613256   24.946265 C.3        1 MOL1         0.0209
       5    H3      18.491807   19.288805   25.276739 H          1 MOL1         0.0967
       6    H4      18.823801   17.665700   24.655931 H          1 MOL1         0.0967
       7    C2      20.008892   19.212896   23.723807 C.3        1 MOL1        -0.1378
       8    H5      20.448897   20.182167   23.991191 H          1 MOL1         0.0993
       9    H6      20.834768   18.549561   23.437971 H          1 MOL1         0.0993
      10    C3      19.040129   19.397847   22.532304 C.3        1 MOL1        -0.1338
      11    H7      18.180632   19.998081   22.861770 H          1 MOL1         0.0993
      12    H8      18.630055   18.424301   22.232196 H          1 MOL1         0.0993
      13    C4      19.686159   20.100185   21.309811 C.3        1 MOL1        -0.1338
      14    H9      18.921447   20.225397   20.530854 H          1 MOL1         0.0993
      15    H10     19.987847   21.116154   21.599698 H          1 MOL1         0.0993
      16    C5      20.909961   19.371824   20.697357 C.3        1 MOL1        -0.1313
      17    H11     21.736178   19.343231   21.420306 H          1 MOL1         0.0993
      18    H12     21.277423   19.961669   19.845988 H          1 MOL1         0.0993
      19    C6      20.593070   17.939681   20.209989 C.3        1 MOL1        -0.2328
      20    H13     20.333614   17.278289   21.045953 H          1 MOL1         0.1004
      21    H14     21.463889   17.504522   19.702879 H          1 MOL1         0.1004
      22    H15     19.756543   17.940704   19.499244 H          1 MOL1         0.1004
      23    C7      20.699659   19.623604   26.760250 C.3        1 MOL1        -0.0781
      24    H16     21.303494   20.163087   26.027866 H          1 MOL1         0.0978
      25    H17     19.849584   20.237901   27.064965 H          1 MOL1         0.0978
      26    H18     21.310807   19.381255   27.632518 H          1 MOL1         0.0978
@<TRIPOS>BOND
    1     1     2    1
    2     1     3    1
    3     1     4    1
    4     4     5    1
    5     4     6    1
    6     4     7    1
    7     7     8    1
    8     7     9    1
    9     7    10    1
   10    10    11    1
   11    10    12    1
   12    10    13    1
   13    13    14    1
   14    13    15    1
   15    13    16    1
   16    16    17    1
   17    16    18    1
   18    16    19    1
   19    19    20    1
   20    19    21    1
   21    19    22    1
   22     1    23    1
   23    23    24    1
   24    23    25    1
   25    23    26    1
@<TRIPOS>SUBSTRUCTURE
       1 MOL1            1 RESIDUE      1      MOL     
@<SCITEGIC>MOL_PROPERTY
VM2 Rank
SciTegic.value.IntegerValue
65

@<SCITEGIC>MOL_PROPERTY
Conf_Id
SciTegic.value.IntegerValue
853

@<SCITEGIC>MOL_PROPERTY
Probability
SciTegic.value.DoubleValue
0.50

@<SCITEGIC>MOL_PROPERTY
Sum Probability
SciTegic.value.DoubleValue
89.20

@<SCITEGIC>MOL_PROPERTY
Delta G
SciTegic.value.DoubleValue
1.569

@<SCITEGIC>MOL_PROPERTY
G
SciTegic.value.DoubleValue
77.035

@<SCITEGIC>MOL_PROPERTY
E
SciTegic.value.DoubleValue
44.274

@<SCITEGIC>MOL_PROPERTY
-TS
SciTegic.value.DoubleValue
32.761

@<SCITEGIC>MOL_PROPERTY
U+W
SciTegic.value.DoubleValue
22.812

@<SCITEGIC>MOL_PROPERTY
U
SciTegic.value.DoubleValue
72.256

@<SCITEGIC>MOL_PROPERTY
W
SciTegic.value.DoubleValue
-49.444

@<SCITEGIC>MOL_PROPERTY
W(PB)
SciTegic.value.DoubleValue
-51.705

@<SCITEGIC>MOL_PROPERTY
W(SA)
SciTegic.value.DoubleValue
2.261

@<SCITEGIC>MOL_PROPERTY
Valence
SciTegic.value.DoubleValue
2.959

@<SCITEGIC>MOL_PROPERTY
Coulomb
SciTegic.value.DoubleValue
68.784

@<SCITEGIC>MOL_PROPERTY
VdW
SciTegic.value.DoubleValue
0.514

@<SCITEGIC>MOL_PROPERTY
VdW6
SciTegic.value.DoubleValue
-7.552

@<SCITEGIC>MOL_PROPERTY
VdW12
SciTegic.value.DoubleValue
8.066

@<SCITEGIC>MOL_PROPERTY
Bond
SciTegic.value.DoubleValue
0.241

@<SCITEGIC>MOL_PROPERTY
Angle
SciTegic.value.DoubleValue
1.124

@<SCITEGIC>MOL_PROPERTY
Pdih
SciTegic.value.DoubleValue
1.594

@<SCITEGIC>MOL_PROPERTY
Idih
SciTegic.value.DoubleValue
0.000

@<SCITEGIC>MOL_PROPERTY
Tether
SciTegic.value.DoubleValue
0.000

@<TRIPOS>MOLECULE
guest-s12_vm2.mol2 : vm2 ligand conformer 66
          26          25           1
SMALL
USER_CHARGES
 
@<TRIPOS>ATOM
       1    N1      20.562139   18.838070   26.306648 N.4        1 MOL1        -0.4857
       2    H1      21.430326   19.154261   26.767298 H          1 MOL1         0.3650
       3    H2      20.614375   17.807750   26.319055 H          1 MOL1         0.3650
       4    C1      20.532916   19.345643   24.874599 C.3        1 MOL1         0.0209
       5    H3      21.502929   19.109874   24.430881 H          1 MOL1         0.0967
       6    H4      20.428710   20.433085   24.904998 H          1 MOL1         0.0967
       7    C2      19.415483   18.735454   24.001279 C.3        1 MOL1        -0.1378
       8    H5      19.505992   17.641196   23.997708 H          1 MOL1         0.0993
       9    H6      18.438930   18.967743   24.445065 H          1 MOL1         0.0993
      10    C3      19.435319   19.263435   22.547008 C.3        1 MOL1        -0.1338
      11    H7      19.338943   20.357988   22.553527 H          1 MOL1         0.0993
      12    H8      18.547960   18.876132   22.029773 H          1 MOL1         0.0993
      13    C4      20.711004   18.854363   21.767053 C.3        1 MOL1        -0.1338
      14    H9      21.599604   19.223295   22.295843 H          1 MOL1         0.0993
      15    H10     20.796874   17.759197   21.745250 H          1 MOL1         0.0993
      16    C5      20.751010   19.403525   20.320076 C.3        1 MOL1        -0.1313
      17    H11     21.731502   19.169552   19.882127 H          1 MOL1         0.0993
      18    H12     20.676212   20.499870   20.336103 H          1 MOL1         0.0993
      19    C6      19.648175   18.819892   19.407443 C.3        1 MOL1        -0.2328
      20    H13     19.782187   19.165773   18.374322 H          1 MOL1         0.1004
      21    H14     18.647896   19.132586   19.731289 H          1 MOL1         0.1004
      22    H15     19.680776   17.722679   19.400265 H          1 MOL1         0.1004
      23    C7      19.351954   19.329620   27.092894 C.3        1 MOL1        -0.0781
      24    H16     19.333166   20.421512   27.076964 H          1 MOL1         0.0978
      25    H17     18.440563   18.936303   26.638312 H          1 MOL1         0.0978
      26    H18     19.428964   18.977336   28.123937 H          1 MOL1         0.0978
@<TRIPOS>BOND
    1     1     2    1
    2     1     3    1
    3     1     4    1
    4     4     5    1
    5     4     6    1
    6     4     7    1
    7     7     8    1
    8     7     9    1
    9     7    10    1
   10    10    11    1
   11    10    12    1
   12    10    13    1
   13    13    14    1
   14    13    15    1
   15    13    16    1
   16    16    17    1
   17    16    18    1
   18    16    19    1
   19    19    20    1
   20    19    21    1
   21    19    22    1
   22     1    23    1
   23    23    24    1
   24    23    25    1
   25    23    26    1
@<TRIPOS>SUBSTRUCTURE
       1 MOL1            1 RESIDUE      1      MOL     
@<SCITEGIC>MOL_PROPERTY
VM2 Rank
SciTegic.value.IntegerValue
66

@<SCITEGIC>MOL_PROPERTY
Conf_Id
SciTegic.value.IntegerValue
570

@<SCITEGIC>MOL_PROPERTY
Probability
SciTegic.value.DoubleValue
0.50

@<SCITEGIC>MOL_PROPERTY
Sum Probability
SciTegic.value.DoubleValue
89.70

@<SCITEGIC>MOL_PROPERTY
Delta G
SciTegic.value.DoubleValue
1.570

@<SCITEGIC>MOL_PROPERTY
G
SciTegic.value.DoubleValue
77.036

@<SCITEGIC>MOL_PROPERTY
E
SciTegic.value.DoubleValue
44.526

@<SCITEGIC>MOL_PROPERTY
-TS
SciTegic.value.DoubleValue
32.510

@<SCITEGIC>MOL_PROPERTY
U+W
SciTegic.value.DoubleValue
23.064

@<SCITEGIC>MOL_PROPERTY
U
SciTegic.value.DoubleValue
72.298

@<SCITEGIC>MOL_PROPERTY
W
SciTegic.value.DoubleValue
-49.234

@<SCITEGIC>MOL_PROPERTY
W(PB)
SciTegic.value.DoubleValue
-51.502

@<SCITEGIC>MOL_PROPERTY
W(SA)
SciTegic.value.DoubleValue
2.268

@<SCITEGIC>MOL_PROPERTY
Valence
SciTegic.value.DoubleValue
2.869

@<SCITEGIC>MOL_PROPERTY
Coulomb
SciTegic.value.DoubleValue
68.765

@<SCITEGIC>MOL_PROPERTY
VdW
SciTegic.value.DoubleValue
0.665

@<SCITEGIC>MOL_PROPERTY
VdW6
SciTegic.value.DoubleValue
-7.141

@<SCITEGIC>MOL_PROPERTY
VdW12
SciTegic.value.DoubleValue
7.806

@<SCITEGIC>MOL_PROPERTY
Bond
SciTegic.value.DoubleValue
0.230

@<SCITEGIC>MOL_PROPERTY
Angle
SciTegic.value.DoubleValue
0.882

@<SCITEGIC>MOL_PROPERTY
Pdih
SciTegic.value.DoubleValue
1.756

@<SCITEGIC>MOL_PROPERTY
Idih
SciTegic.value.DoubleValue
0.000

@<SCITEGIC>MOL_PROPERTY
Tether
SciTegic.value.DoubleValue
0.000

@<TRIPOS>MOLECULE
guest-s12_vm2.mol2 : vm2 ligand conformer 67
          26          25           1
SMALL
USER_CHARGES
 
@<TRIPOS>ATOM
       1    N1      19.388019   18.718072   26.265063 N.4        1 MOL1        -0.4857
       2    H1      19.544324   17.698392   26.281186 H          1 MOL1         0.3650
       3    H2      18.443759   18.849002   26.661489 H          1 MOL1         0.3650
       4    C1      19.414310   19.231280   24.834966 C.3        1 MOL1         0.0209
       5    H3      19.294262   20.317103   24.864773 H          1 MOL1         0.0967
       6    H4      18.545444   18.807556   24.326114 H          1 MOL1         0.0967
       7    C2      20.690343   18.865686   24.046451 C.3        1 MOL1        -0.1378
       8    H5      21.566300   19.287279   24.555882 H          1 MOL1         0.0993
       9    H6      20.823232   17.775758   24.044380 H          1 MOL1         0.0993
      10    C3      20.666179   19.389176   22.590617 C.3        1 MOL1        -0.1338
      11    H7      21.647471   19.192785   22.139572 H          1 MOL1         0.0993
      12    H8      20.538807   20.480561   22.596045 H          1 MOL1         0.0993
      13    C4      19.557221   18.736484   21.726181 C.3        1 MOL1        -0.1338
      14    H9      19.696070   17.646733   21.706223 H          1 MOL1         0.0993
      15    H10     18.577621   18.914523   22.188807 H          1 MOL1         0.0993
      16    C5      19.508526   19.276625   20.276077 C.3        1 MOL1        -0.1313
      17    H11     19.359091   20.365346   20.289486 H          1 MOL1         0.0993
      18    H12     18.628585   18.852633   19.772251 H          1 MOL1         0.0993
      19    C6      20.767606   18.934265   19.447056 C.3        1 MOL1        -0.2328
      20    H13     21.658952   19.440237   19.837835 H          1 MOL1         0.1004
      21    H14     20.639116   19.253281   18.404629 H          1 MOL1         0.1004
      22    H15     20.957866   17.853159   19.445502 H          1 MOL1         0.1004
      23    C7      20.415795   19.438413   27.130589 C.3        1 MOL1        -0.0781
      24    H16     20.214612   20.511660   27.108178 H          1 MOL1         0.0978
      25    H17     20.339541   19.070479   28.156209 H          1 MOL1         0.0978
      26    H18     21.417418   19.240644   26.743792 H          1 MOL1         0.0978
@<TRIPOS>BOND
    1     1     2    1
    2     1     3    1
    3     1     4    1
    4     4     5    1
    5     4     6    1
    6     4     7    1
    7     7     8    1
    8     7     9    1
    9     7    10    1
   10    10    11    1
   11    10    12    1
   12    10    13    1
   13    13    14    1
   14    13    15    1
   15    13    16    1
   16    16    17    1
   17    16    18    1
   18    16    19    1
   19    19    20    1
   20    19    21    1
   21    19    22    1
   22     1    23    1
   23    23    24    1
   24    23    25    1
   25    23    26    1
@<TRIPOS>SUBSTRUCTURE
       1 MOL1            1 RESIDUE      1      MOL     
@<SCITEGIC>MOL_PROPERTY
VM2 Rank
SciTegic.value.IntegerValue
67

@<SCITEGIC>MOL_PROPERTY
Conf_Id
SciTegic.value.IntegerValue
542

@<SCITEGIC>MOL_PROPERTY
Probability
SciTegic.value.DoubleValue
0.48

@<SCITEGIC>MOL_PROPERTY
Sum Probability
SciTegic.value.DoubleValue
90.18

@<SCITEGIC>MOL_PROPERTY
Delta G
SciTegic.value.DoubleValue
1.589

@<SCITEGIC>MOL_PROPERTY
G
SciTegic.value.DoubleValue
77.055

@<SCITEGIC>MOL_PROPERTY
E
SciTegic.value.DoubleValue
44.545

@<SCITEGIC>MOL_PROPERTY
-TS
SciTegic.value.DoubleValue
32.510

@<SCITEGIC>MOL_PROPERTY
U+W
SciTegic.value.DoubleValue
23.083

@<SCITEGIC>MOL_PROPERTY
U
SciTegic.value.DoubleValue
72.298

@<SCITEGIC>MOL_PROPERTY
W
SciTegic.value.DoubleValue
-49.215

@<SCITEGIC>MOL_PROPERTY
W(PB)
SciTegic.value.DoubleValue
-51.499

@<SCITEGIC>MOL_PROPERTY
W(SA)
SciTegic.value.DoubleValue
2.284

@<SCITEGIC>MOL_PROPERTY
Valence
SciTegic.value.DoubleValue
2.869

@<SCITEGIC>MOL_PROPERTY
Coulomb
SciTegic.value.DoubleValue
68.765

@<SCITEGIC>MOL_PROPERTY
VdW
SciTegic.value.DoubleValue
0.664

@<SCITEGIC>MOL_PROPERTY
VdW6
SciTegic.value.DoubleValue
-7.141

@<SCITEGIC>MOL_PROPERTY
VdW12
SciTegic.value.DoubleValue
7.805

@<SCITEGIC>MOL_PROPERTY
Bond
SciTegic.value.DoubleValue
0.231

@<SCITEGIC>MOL_PROPERTY
Angle
SciTegic.value.DoubleValue
0.882

@<SCITEGIC>MOL_PROPERTY
Pdih
SciTegic.value.DoubleValue
1.757

@<SCITEGIC>MOL_PROPERTY
Idih
SciTegic.value.DoubleValue
0.000

@<SCITEGIC>MOL_PROPERTY
Tether
SciTegic.value.DoubleValue
0.000

@<TRIPOS>MOLECULE
guest-s12_vm2.mol2 : vm2 ligand conformer 68
          26          25           1
SMALL
USER_CHARGES
 
@<TRIPOS>ATOM
       1    N1      19.488828   18.662027   25.852858 N.4        1 MOL1        -0.4857
       2    H1      20.051056   17.929392   26.313208 H          1 MOL1         0.3650
       3    H2      18.634200   18.186494   25.524122 H          1 MOL1         0.3650
       4    C1      20.249125   19.243434   24.678087 C.3        1 MOL1         0.0209
       5    H3      21.150199   19.724905   25.066177 H          1 MOL1         0.0967
       6    H4      19.619096   20.009387   24.219547 H          1 MOL1         0.0967
       7    C2      20.637760   18.190772   23.622590 C.3        1 MOL1        -0.1378
       8    H5      21.240448   17.407406   24.100949 H          1 MOL1         0.0993
       9    H6      19.734580   17.696107   23.243142 H          1 MOL1         0.0993
      10    C3      21.444725   18.794338   22.446269 C.3        1 MOL1        -0.1338
      11    H7      21.705881   17.993486   21.741686 H          1 MOL1         0.0993
      12    H8      22.401760   19.173725   22.830335 H          1 MOL1         0.0993
      13    C4      20.727331   19.941935   21.685050 C.3        1 MOL1        -0.1338
      14    H9      20.617930   20.808830   22.350540 H          1 MOL1         0.0993
      15    H10     21.377728   20.279643   20.866428 H          1 MOL1         0.0993
      16    C5      19.337761   19.579008   21.101995 C.3        1 MOL1        -0.1313
      17    H11     18.925926   20.466056   20.600721 H          1 MOL1         0.0993
      18    H12     18.636296   19.339617   21.912411 H          1 MOL1         0.0993
      19    C6      19.383458   18.412109   20.089516 C.3        1 MOL1        -0.2328
      20    H13     20.088138   18.623996   19.274988 H          1 MOL1         0.1004
      21    H14     18.393575   18.250809   19.643476 H          1 MOL1         0.1004
      22    H15     19.686082   17.473557   20.570193 H          1 MOL1         0.1004
      23    C7      19.139012   19.766376   26.840635 C.3        1 MOL1        -0.0781
      24    H16     18.592255   19.334502   27.681869 H          1 MOL1         0.0978
      25    H17     20.059510   20.232283   27.199198 H          1 MOL1         0.0978
      26    H18     18.517197   20.512038   26.340357 H          1 MOL1         0.0978
@<TRIPOS>BOND
    1     1     2    1
    2     1     3    1
    3     1     4    1
    4     4     5    1
    5     4     6    1
    6     4     7    1
    7     7     8    1
    8     7     9    1
    9     7    10    1
   10    10    11    1
   11    10    12    1
   12    10    13    1
   13    13    14    1
   14    13    15    1
   15    13    16    1
   16    16    17    1
   17    16    18    1
   18    16    19    1
   19    19    20    1
   20    19    21    1
   21    19    22    1
   22     1    23    1
   23    23    24    1
   24    23    25    1
   25    23    26    1
@<TRIPOS>SUBSTRUCTURE
       1 MOL1            1 RESIDUE      1      MOL     
@<SCITEGIC>MOL_PROPERTY
VM2 Rank
SciTegic.value.IntegerValue
68

@<SCITEGIC>MOL_PROPERTY
Conf_Id
SciTegic.value.IntegerValue
1324

@<SCITEGIC>MOL_PROPERTY
Probability
SciTegic.value.DoubleValue
0.41

@<SCITEGIC>MOL_PROPERTY
Sum Probability
SciTegic.value.DoubleValue
90.58

@<SCITEGIC>MOL_PROPERTY
Delta G
SciTegic.value.DoubleValue
1.690

@<SCITEGIC>MOL_PROPERTY
G
SciTegic.value.DoubleValue
77.156

@<SCITEGIC>MOL_PROPERTY
E
SciTegic.value.DoubleValue
44.327

@<SCITEGIC>MOL_PROPERTY
-TS
SciTegic.value.DoubleValue
32.829

@<SCITEGIC>MOL_PROPERTY
U+W
SciTegic.value.DoubleValue
22.866

@<SCITEGIC>MOL_PROPERTY
U
SciTegic.value.DoubleValue
72.455

@<SCITEGIC>MOL_PROPERTY
W
SciTegic.value.DoubleValue
-49.589

@<SCITEGIC>MOL_PROPERTY
W(PB)
SciTegic.value.DoubleValue
-51.824

@<SCITEGIC>MOL_PROPERTY
W(SA)
SciTegic.value.DoubleValue
2.234

@<SCITEGIC>MOL_PROPERTY
Valence
SciTegic.value.DoubleValue
2.909

@<SCITEGIC>MOL_PROPERTY
Coulomb
SciTegic.value.DoubleValue
69.435

@<SCITEGIC>MOL_PROPERTY
VdW
SciTegic.value.DoubleValue
0.111

@<SCITEGIC>MOL_PROPERTY
VdW6
SciTegic.value.DoubleValue
-7.765

@<SCITEGIC>MOL_PROPERTY
VdW12
SciTegic.value.DoubleValue
7.877

@<SCITEGIC>MOL_PROPERTY
Bond
SciTegic.value.DoubleValue
0.233

@<SCITEGIC>MOL_PROPERTY
Angle
SciTegic.value.DoubleValue
1.170

@<SCITEGIC>MOL_PROPERTY
Pdih
SciTegic.value.DoubleValue
1.506

@<SCITEGIC>MOL_PROPERTY
Idih
SciTegic.value.DoubleValue
0.000

@<SCITEGIC>MOL_PROPERTY
Tether
SciTegic.value.DoubleValue
0.000

@<TRIPOS>MOLECULE
guest-s12_vm2.mol2 : vm2 ligand conformer 69
          26          25           1
SMALL
USER_CHARGES
 
@<TRIPOS>ATOM
       1    N1      20.279162   18.915434   25.647250 N.4        1 MOL1        -0.4857
       2    H1      20.934918   18.273849   25.176799 H          1 MOL1         0.3650
       3    H2      19.696842   18.319138   26.255447 H          1 MOL1         0.3650
       4    C1      19.412317   19.615083   24.618914 C.3        1 MOL1         0.0209
       5    H3      20.060711   20.241868   24.001940 H          1 MOL1         0.0967
       6    H4      18.720449   20.267716   25.157364 H          1 MOL1         0.0967
       7    C2      18.613205   18.650485   23.718970 C.3        1 MOL1        -0.1378
       8    H5      17.935904   18.053475   24.343921 H          1 MOL1         0.0993
       9    H6      17.966451   19.239470   23.056205 H          1 MOL1         0.0993
      10    C3      19.499128   17.698490   22.872663 C.3        1 MOL1        -0.1338
      11    H7      18.849397   17.089836   22.228693 H          1 MOL1         0.0993
      12    H8      20.005722   16.986856   23.538362 H          1 MOL1         0.0993
      13    C4      20.563245   18.405797   21.993676 C.3        1 MOL1        -0.1338
      14    H9      21.281515   18.941660   22.628477 H          1 MOL1         0.0993
      15    H10     21.142805   17.636236   21.465204 H          1 MOL1         0.0993
      16    C5      19.958553   19.380001   20.955153 C.3        1 MOL1        -0.1313
      17    H11     19.431363   20.197734   21.464410 H          1 MOL1         0.0993
      18    H12     19.213565   18.853449   20.342382 H          1 MOL1         0.0993
      19    C6      21.044864   19.979880   20.037126 C.3        1 MOL1        -0.2328
      20    H13     20.599227   20.669695   19.308729 H          1 MOL1         0.1004
      21    H14     21.568883   19.193397   19.478538 H          1 MOL1         0.1004
      22    H15     21.788764   20.539284   20.619247 H          1 MOL1         0.1004
      23    C7      21.037527   19.944830   26.473249 C.3        1 MOL1        -0.0781
      24    H16     21.658017   19.427565   27.208454 H          1 MOL1         0.0978
      25    H17     21.669289   20.541464   25.811578 H          1 MOL1         0.0978
      26    H18     20.321920   20.592253   26.984775 H          1 MOL1         0.0978
@<TRIPOS>BOND
    1     1     2    1
    2     1     3    1
    3     1     4    1
    4     4     5    1
    5     4     6    1
    6     4     7    1
    7     7     8    1
    8     7     9    1
    9     7    10    1
   10    10    11    1
   11    10    12    1
   12    10    13    1
   13    13    14    1
   14    13    15    1
   15    13    16    1
   16    16    17    1
   17    16    18    1
   18    16    19    1
   19    19    20    1
   20    19    21    1
   21    19    22    1
   22     1    23    1
   23    23    24    1
   24    23    25    1
   25    23    26    1
@<TRIPOS>SUBSTRUCTURE
       1 MOL1            1 RESIDUE      1      MOL     
@<SCITEGIC>MOL_PROPERTY
VM2 Rank
SciTegic.value.IntegerValue
69

@<SCITEGIC>MOL_PROPERTY
Conf_Id
SciTegic.value.IntegerValue
108

@<SCITEGIC>MOL_PROPERTY
Probability
SciTegic.value.DoubleValue
0.39

@<SCITEGIC>MOL_PROPERTY
Sum Probability
SciTegic.value.DoubleValue
90.97

@<SCITEGIC>MOL_PROPERTY
Delta G
SciTegic.value.DoubleValue
1.713

@<SCITEGIC>MOL_PROPERTY
G
SciTegic.value.DoubleValue
77.179

@<SCITEGIC>MOL_PROPERTY
E
SciTegic.value.DoubleValue
44.470

@<SCITEGIC>MOL_PROPERTY
-TS
SciTegic.value.DoubleValue
32.708

@<SCITEGIC>MOL_PROPERTY
U+W
SciTegic.value.DoubleValue
23.009

@<SCITEGIC>MOL_PROPERTY
U
SciTegic.value.DoubleValue
72.452

@<SCITEGIC>MOL_PROPERTY
W
SciTegic.value.DoubleValue
-49.444

@<SCITEGIC>MOL_PROPERTY
W(PB)
SciTegic.value.DoubleValue
-51.701

@<SCITEGIC>MOL_PROPERTY
W(SA)
SciTegic.value.DoubleValue
2.257

@<SCITEGIC>MOL_PROPERTY
Valence
SciTegic.value.DoubleValue
2.611

@<SCITEGIC>MOL_PROPERTY
Coulomb
SciTegic.value.DoubleValue
69.807

@<SCITEGIC>MOL_PROPERTY
VdW
SciTegic.value.DoubleValue
0.035

@<SCITEGIC>MOL_PROPERTY
VdW6
SciTegic.value.DoubleValue
-7.730

@<SCITEGIC>MOL_PROPERTY
VdW12
SciTegic.value.DoubleValue
7.764

@<SCITEGIC>MOL_PROPERTY
Bond
SciTegic.value.DoubleValue
0.213

@<SCITEGIC>MOL_PROPERTY
Angle
SciTegic.value.DoubleValue
0.953

@<SCITEGIC>MOL_PROPERTY
Pdih
SciTegic.value.DoubleValue
1.445

@<SCITEGIC>MOL_PROPERTY
Idih
SciTegic.value.DoubleValue
0.000

@<SCITEGIC>MOL_PROPERTY
Tether
SciTegic.value.DoubleValue
0.000

@<TRIPOS>MOLECULE
guest-s12_vm2.mol2 : vm2 ligand conformer 70
          26          25           1
SMALL
USER_CHARGES
 
@<TRIPOS>ATOM
       1    N1      19.770919   18.827514   25.922185 N.4        1 MOL1        -0.4857
       2    H1      20.295824   17.954878   26.088482 H          1 MOL1         0.3650
       3    H2      18.861896   18.533478   25.534546 H          1 MOL1         0.3650
       4    C1      20.507964   19.696847   24.921634 C.3        1 MOL1         0.0209
       5    H3      21.460430   19.983520   25.374662 H          1 MOL1         0.0967
       6    H4      19.918953   20.603752   24.763466 H          1 MOL1         0.0967
       7    C2      20.773970   19.008385   23.568330 C.3        1 MOL1        -0.1378
       8    H5      21.410063   19.673233   22.970792 H          1 MOL1         0.0993
       9    H6      21.347894   18.086684   23.731862 H          1 MOL1         0.0993
      10    C3      19.471035   18.693684   22.791098 C.3        1 MOL1        -0.1338
      11    H7      18.911716   19.621944   22.613682 H          1 MOL1         0.0993
      12    H8      18.819613   18.062924   23.410060 H          1 MOL1         0.0993
      13    C4      19.713099   17.957118   21.447828 C.3        1 MOL1        -0.1338
      14    H9      20.177405   16.982719   21.653282 H          1 MOL1         0.0993
      15    H10     18.739969   17.734332   20.988868 H          1 MOL1         0.0993
      16    C5      20.587107   18.719442   20.418974 C.3        1 MOL1        -0.1313
      17    H11     20.680529   18.101713   19.514838 H          1 MOL1         0.0993
      18    H12     21.608351   18.841846   20.803741 H          1 MOL1         0.0993
      19    C6      20.010069   20.097230   20.021852 C.3        1 MOL1        -0.2328
      20    H13     20.612985   20.551436   19.224956 H          1 MOL1         0.1004
      21    H14     20.007848   20.792360   20.870606 H          1 MOL1         0.1004
      22    H15     18.981052   20.002346   19.651643 H          1 MOL1         0.1004
      23    C7      19.573837   19.589779   27.225098 C.3        1 MOL1        -0.0781
      24    H16     20.549773   19.862609   27.632585 H          1 MOL1         0.0978
      25    H17     18.989508   20.491427   27.028811 H          1 MOL1         0.0978
      26    H18     19.042291   18.953058   27.935847 H          1 MOL1         0.0978
@<TRIPOS>BOND
    1     1     2    1
    2     1     3    1
    3     1     4    1
    4     4     5    1
    5     4     6    1
    6     4     7    1
    7     7     8    1
    8     7     9    1
    9     7    10    1
   10    10    11    1
   11    10    12    1
   12    10    13    1
   13    13    14    1
   14    13    15    1
   15    13    16    1
   16    16    17    1
   17    16    18    1
   18    16    19    1
   19    19    20    1
   20    19    21    1
   21    19    22    1
   22     1    23    1
   23    23    24    1
   24    23    25    1
   25    23    26    1
@<TRIPOS>SUBSTRUCTURE
       1 MOL1            1 RESIDUE      1      MOL     
@<SCITEGIC>MOL_PROPERTY
VM2 Rank
SciTegic.value.IntegerValue
70

@<SCITEGIC>MOL_PROPERTY
Conf_Id
SciTegic.value.IntegerValue
1095

@<SCITEGIC>MOL_PROPERTY
Probability
SciTegic.value.DoubleValue
0.38

@<SCITEGIC>MOL_PROPERTY
Sum Probability
SciTegic.value.DoubleValue
91.36

@<SCITEGIC>MOL_PROPERTY
Delta G
SciTegic.value.DoubleValue
1.726

@<SCITEGIC>MOL_PROPERTY
G
SciTegic.value.DoubleValue
77.192

@<SCITEGIC>MOL_PROPERTY
E
SciTegic.value.DoubleValue
44.522

@<SCITEGIC>MOL_PROPERTY
-TS
SciTegic.value.DoubleValue
32.670

@<SCITEGIC>MOL_PROPERTY
U+W
SciTegic.value.DoubleValue
23.060

@<SCITEGIC>MOL_PROPERTY
U
SciTegic.value.DoubleValue
72.391

@<SCITEGIC>MOL_PROPERTY
W
SciTegic.value.DoubleValue
-49.331

@<SCITEGIC>MOL_PROPERTY
W(PB)
SciTegic.value.DoubleValue
-51.594

@<SCITEGIC>MOL_PROPERTY
W(SA)
SciTegic.value.DoubleValue
2.263

@<SCITEGIC>MOL_PROPERTY
Valence
SciTegic.value.DoubleValue
2.830

@<SCITEGIC>MOL_PROPERTY
Coulomb
SciTegic.value.DoubleValue
69.222

@<SCITEGIC>MOL_PROPERTY
VdW
SciTegic.value.DoubleValue
0.339

@<SCITEGIC>MOL_PROPERTY
VdW6
SciTegic.value.DoubleValue
-7.379

@<SCITEGIC>MOL_PROPERTY
VdW12
SciTegic.value.DoubleValue
7.718

@<SCITEGIC>MOL_PROPERTY
Bond
SciTegic.value.DoubleValue
0.228

@<SCITEGIC>MOL_PROPERTY
Angle
SciTegic.value.DoubleValue
1.104

@<SCITEGIC>MOL_PROPERTY
Pdih
SciTegic.value.DoubleValue
1.498

@<SCITEGIC>MOL_PROPERTY
Idih
SciTegic.value.DoubleValue
0.000

@<SCITEGIC>MOL_PROPERTY
Tether
SciTegic.value.DoubleValue
0.000

@<TRIPOS>MOLECULE
guest-s12_vm2.mol2 : vm2 ligand conformer 71
          26          25           1
SMALL
USER_CHARGES
 
@<TRIPOS>ATOM
       1    N1      19.694444   18.856360   25.626641 N.4        1 MOL1        -0.4857
       2    H1      20.340151   18.384251   26.278366 H          1 MOL1         0.3650
       3    H2      19.214767   18.099958   25.116021 H          1 MOL1         0.3650
       4    C1      20.473794   19.722360   24.656556 C.3        1 MOL1         0.0209
       5    H3      20.981817   20.496317   25.237455 H          1 MOL1         0.0967
       6    H4      19.758036   20.211214   23.991241 H          1 MOL1         0.0967
       7    C2      21.510598   18.943283   23.821683 C.3        1 MOL1        -0.1378
       8    H5      22.071463   19.654296   23.201730 H          1 MOL1         0.0993
       9    H6      22.248022   18.489225   24.496783 H          1 MOL1         0.0993
      10    C3      20.894297   17.839489   22.922123 C.3        1 MOL1        -0.1338
      11    H7      20.494670   17.036313   23.555703 H          1 MOL1         0.0993
      12    H8      21.696050   17.377469   22.329638 H          1 MOL1         0.0993
      13    C4      19.774642   18.326142   21.965677 C.3        1 MOL1        -0.1338
      14    H9      19.398938   17.460049   21.403427 H          1 MOL1         0.0993
      15    H10     18.921135   18.703317   22.544726 H          1 MOL1         0.0993
      16    C5      20.243887   19.408706   20.965116 C.3        1 MOL1        -0.1313
      17    H11     21.120015   19.045764   20.409753 H          1 MOL1         0.0993
      18    H12     20.560278   20.311620   21.504187 H          1 MOL1         0.0993
      19    C6      19.126684   19.786113   19.969064 C.3        1 MOL1        -0.2328
      20    H13     18.247230   20.181719   20.493697 H          1 MOL1         0.1004
      21    H14     18.810572   18.914798   19.380800 H          1 MOL1         0.1004
      22    H15     19.475559   20.556067   19.268737 H          1 MOL1         0.1004
      23    C7      18.689654   19.707547   26.390140 C.3        1 MOL1        -0.0781
      24    H16     19.223760   20.481384   26.945853 H          1 MOL1         0.0978
      25    H17     17.999266   20.170428   25.681615 H          1 MOL1         0.0978
      26    H18     18.135191   19.071536   27.083796 H          1 MOL1         0.0978
@<TRIPOS>BOND
    1     1     2    1
    2     1     3    1
    3     1     4    1
    4     4     5    1
    5     4     6    1
    6     4     7    1
    7     7     8    1
    8     7     9    1
    9     7    10    1
   10    10    11    1
   11    10    12    1
   12    10    13    1
   13    13    14    1
   14    13    15    1
   15    13    16    1
   16    16    17    1
   17    16    18    1
   18    16    19    1
   19    19    20    1
   20    19    21    1
   21    19    22    1
   22     1    23    1
   23    23    24    1
   24    23    25    1
   25    23    26    1
@<TRIPOS>SUBSTRUCTURE
       1 MOL1            1 RESIDUE      1      MOL     
@<SCITEGIC>MOL_PROPERTY
VM2 Rank
SciTegic.value.IntegerValue
71

@<SCITEGIC>MOL_PROPERTY
Conf_Id
SciTegic.value.IntegerValue
204

@<SCITEGIC>MOL_PROPERTY
Probability
SciTegic.value.DoubleValue
0.38

@<SCITEGIC>MOL_PROPERTY
Sum Probability
SciTegic.value.DoubleValue
91.73

@<SCITEGIC>MOL_PROPERTY
Delta G
SciTegic.value.DoubleValue
1.735

@<SCITEGIC>MOL_PROPERTY
G
SciTegic.value.DoubleValue
77.201

@<SCITEGIC>MOL_PROPERTY
E
SciTegic.value.DoubleValue
44.493

@<SCITEGIC>MOL_PROPERTY
-TS
SciTegic.value.DoubleValue
32.708

@<SCITEGIC>MOL_PROPERTY
U+W
SciTegic.value.DoubleValue
23.031

@<SCITEGIC>MOL_PROPERTY
U
SciTegic.value.DoubleValue
72.452

@<SCITEGIC>MOL_PROPERTY
W
SciTegic.value.DoubleValue
-49.421

@<SCITEGIC>MOL_PROPERTY
W(PB)
SciTegic.value.DoubleValue
-51.690

@<SCITEGIC>MOL_PROPERTY
W(SA)
SciTegic.value.DoubleValue
2.270

@<SCITEGIC>MOL_PROPERTY
Valence
SciTegic.value.DoubleValue
2.611

@<SCITEGIC>MOL_PROPERTY
Coulomb
SciTegic.value.DoubleValue
69.807

@<SCITEGIC>MOL_PROPERTY
VdW
SciTegic.value.DoubleValue
0.035

@<SCITEGIC>MOL_PROPERTY
VdW6
SciTegic.value.DoubleValue
-7.729

@<SCITEGIC>MOL_PROPERTY
VdW12
SciTegic.value.DoubleValue
7.764

@<SCITEGIC>MOL_PROPERTY
Bond
SciTegic.value.DoubleValue
0.213

@<SCITEGIC>MOL_PROPERTY
Angle
SciTegic.value.DoubleValue
0.953

@<SCITEGIC>MOL_PROPERTY
Pdih
SciTegic.value.DoubleValue
1.444

@<SCITEGIC>MOL_PROPERTY
Idih
SciTegic.value.DoubleValue
0.000

@<SCITEGIC>MOL_PROPERTY
Tether
SciTegic.value.DoubleValue
0.000

@<TRIPOS>MOLECULE
guest-s12_vm2.mol2 : vm2 ligand conformer 72
          26          25           1
SMALL
USER_CHARGES
 
@<TRIPOS>ATOM
       1    N1      20.503727   18.765529   25.888833 N.4        1 MOL1        -0.4857
       2    H1      21.457593   18.474509   25.624189 H          1 MOL1         0.3650
       3    H2      20.069962   17.931260   26.313825 H          1 MOL1         0.3650
       4    C1      19.726028   19.190106   24.659568 C.3        1 MOL1         0.0209
       5    H3      20.219252   20.070598   24.240827 H          1 MOL1         0.0967
       6    H4      18.721468   19.477260   24.980137 H          1 MOL1         0.0967
       7    C2      19.632481   18.088280   23.586981 C.3        1 MOL1        -0.1378
       8    H5      20.641148   17.788572   23.275253 H          1 MOL1         0.0993
       9    H6      19.168100   17.196098   24.027531 H          1 MOL1         0.0993
      10    C3      18.804806   18.525174   22.352763 C.3        1 MOL1        -0.1338
      11    H7      17.766448   18.701111   22.666155 H          1 MOL1         0.0993
      12    H8      18.760427   17.693169   21.637360 H          1 MOL1         0.0993
      13    C4      19.327657   19.799227   21.635472 C.3        1 MOL1        -0.1338
      14    H9      18.681467   20.004764   20.770951 H          1 MOL1         0.0993
      15    H10     19.213241   20.665600   22.300797 H          1 MOL1         0.0993
      16    C5      20.799188   19.727992   21.153705 C.3        1 MOL1        -0.1313
      17    H11     21.476032   19.629097   22.012912 H          1 MOL1         0.0993
      18    H12     21.057842   20.683405   20.676190 H          1 MOL1         0.0993
      19    C6      21.060592   18.583112   20.148829 C.3        1 MOL1        -0.2328
      20    H13     20.386472   18.654481   19.285468 H          1 MOL1         0.1004
      21    H14     20.920418   17.599407   20.613788 H          1 MOL1         0.1004
      22    H15     22.091423   18.627805   19.774363 H          1 MOL1         0.1004
      23    C7      20.553521   19.910579   26.890850 C.3        1 MOL1        -0.0781
      24    H16     19.535156   20.178659   27.180709 H          1 MOL1         0.0978
      25    H17     21.115829   19.591796   27.771373 H          1 MOL1         0.0978
      26    H18     21.045657   20.769920   26.430113 H          1 MOL1         0.0978
@<TRIPOS>BOND
    1     1     2    1
    2     1     3    1
    3     1     4    1
    4     4     5    1
    5     4     6    1
    6     4     7    1
    7     7     8    1
    8     7     9    1
    9     7    10    1
   10    10    11    1
   11    10    12    1
   12    10    13    1
   13    13    14    1
   14    13    15    1
   15    13    16    1
   16    16    17    1
   17    16    18    1
   18    16    19    1
   19    19    20    1
   20    19    21    1
   21    19    22    1
   22     1    23    1
   23    23    24    1
   24    23    25    1
   25    23    26    1
@<TRIPOS>SUBSTRUCTURE
       1 MOL1            1 RESIDUE      1      MOL     
@<SCITEGIC>MOL_PROPERTY
VM2 Rank
SciTegic.value.IntegerValue
72

@<SCITEGIC>MOL_PROPERTY
Conf_Id
SciTegic.value.IntegerValue
1178

@<SCITEGIC>MOL_PROPERTY
Probability
SciTegic.value.DoubleValue
0.36

@<SCITEGIC>MOL_PROPERTY
Sum Probability
SciTegic.value.DoubleValue
92.09

@<SCITEGIC>MOL_PROPERTY
Delta G
SciTegic.value.DoubleValue
1.762

@<SCITEGIC>MOL_PROPERTY
G
SciTegic.value.DoubleValue
77.228

@<SCITEGIC>MOL_PROPERTY
E
SciTegic.value.DoubleValue
44.400

@<SCITEGIC>MOL_PROPERTY
-TS
SciTegic.value.DoubleValue
32.829

@<SCITEGIC>MOL_PROPERTY
U+W
SciTegic.value.DoubleValue
22.938

@<SCITEGIC>MOL_PROPERTY
U
SciTegic.value.DoubleValue
72.455

@<SCITEGIC>MOL_PROPERTY
W
SciTegic.value.DoubleValue
-49.517

@<SCITEGIC>MOL_PROPERTY
W(PB)
SciTegic.value.DoubleValue
-51.795

@<SCITEGIC>MOL_PROPERTY
W(SA)
SciTegic.value.DoubleValue
2.278

@<SCITEGIC>MOL_PROPERTY
Valence
SciTegic.value.DoubleValue
2.909

@<SCITEGIC>MOL_PROPERTY
Coulomb
SciTegic.value.DoubleValue
69.435

@<SCITEGIC>MOL_PROPERTY
VdW
SciTegic.value.DoubleValue
0.111

@<SCITEGIC>MOL_PROPERTY
VdW6
SciTegic.value.DoubleValue
-7.765

@<SCITEGIC>MOL_PROPERTY
VdW12
SciTegic.value.DoubleValue
7.877

@<SCITEGIC>MOL_PROPERTY
Bond
SciTegic.value.DoubleValue
0.233

@<SCITEGIC>MOL_PROPERTY
Angle
SciTegic.value.DoubleValue
1.170

@<SCITEGIC>MOL_PROPERTY
Pdih
SciTegic.value.DoubleValue
1.506

@<SCITEGIC>MOL_PROPERTY
Idih
SciTegic.value.DoubleValue
0.000

@<SCITEGIC>MOL_PROPERTY
Tether
SciTegic.value.DoubleValue
0.000

@<TRIPOS>MOLECULE
guest-s12_vm2.mol2 : vm2 ligand conformer 73
          26          25           1
SMALL
USER_CHARGES
 
@<TRIPOS>ATOM
       1    N1      20.189727   18.870116   25.936977 N.4        1 MOL1        -0.4857
       2    H1      21.164054   18.766900   25.615918 H          1 MOL1         0.3650
       3    H2      19.840038   17.908869   26.072594 H          1 MOL1         0.3650
       4    C1      19.365174   19.580941   24.881083 C.3        1 MOL1         0.0209
       5    H3      19.770072   20.588563   24.757856 H          1 MOL1         0.0967
       6    H4      18.345296   19.667780   25.264377 H          1 MOL1         0.0967
       7    C2      19.337776   18.862516   23.517525 C.3        1 MOL1        -0.1378
       8    H5      18.949851   17.843508   23.647163 H          1 MOL1         0.0993
       9    H6      18.624971   19.390758   22.872115 H          1 MOL1         0.0993
      10    C3      20.728514   18.820244   22.835744 C.3        1 MOL1        -0.1338
      11    H7      21.447814   18.327801   23.503151 H          1 MOL1         0.0993
      12    H8      21.102105   19.842820   22.691703 H          1 MOL1         0.0993
      13    C4      20.733269   18.060103   21.483832 C.3        1 MOL1        -0.1338
      14    H9      21.761057   18.039438   21.095907 H          1 MOL1         0.0993
      15    H10     20.459573   17.011143   21.662771 H          1 MOL1         0.0993
      16    C5      19.799120   18.640217   20.390942 C.3        1 MOL1        -0.1313
      17    H11     18.749547   18.553428   20.702119 H          1 MOL1         0.0993
      18    H12     19.894648   18.022997   19.486678 H          1 MOL1         0.0993
      19    C6      20.115905   20.108372   20.026044 C.3        1 MOL1        -0.2328
      20    H13     19.919641   20.783647   20.868112 H          1 MOL1         0.1004
      21    H14     19.491961   20.438968   19.185654 H          1 MOL1         0.1004
      22    H15     21.166569   20.223573   19.729782 H          1 MOL1         0.1004
      23    C7      20.138515   19.647491   27.244853 C.3        1 MOL1        -0.0781
      24    H16     19.101670   19.716333   27.581224 H          1 MOL1         0.0978
      25    H17     20.735950   19.125425   27.995611 H          1 MOL1         0.0978
      26    H18     20.542485   20.649303   27.083232 H          1 MOL1         0.0978
@<TRIPOS>BOND
    1     1     2    1
    2     1     3    1
    3     1     4    1
    4     4     5    1
    5     4     6    1
    6     4     7    1
    7     7     8    1
    8     7     9    1
    9     7    10    1
   10    10    11    1
   11    10    12    1
   12    10    13    1
   13    13    14    1
   14    13    15    1
   15    13    16    1
   16    16    17    1
   17    16    18    1
   18    16    19    1
   19    19    20    1
   20    19    21    1
   21    19    22    1
   22     1    23    1
   23    23    24    1
   24    23    25    1
   25    23    26    1
@<TRIPOS>SUBSTRUCTURE
       1 MOL1            1 RESIDUE      1      MOL     
@<SCITEGIC>MOL_PROPERTY
VM2 Rank
SciTegic.value.IntegerValue
73

@<SCITEGIC>MOL_PROPERTY
Conf_Id
SciTegic.value.IntegerValue
996

@<SCITEGIC>MOL_PROPERTY
Probability
SciTegic.value.DoubleValue
0.34

@<SCITEGIC>MOL_PROPERTY
Sum Probability
SciTegic.value.DoubleValue
92.43

@<SCITEGIC>MOL_PROPERTY
Delta G
SciTegic.value.DoubleValue
1.799

@<SCITEGIC>MOL_PROPERTY
G
SciTegic.value.DoubleValue
77.265

@<SCITEGIC>MOL_PROPERTY
E
SciTegic.value.DoubleValue
44.594

@<SCITEGIC>MOL_PROPERTY
-TS
SciTegic.value.DoubleValue
32.670

@<SCITEGIC>MOL_PROPERTY
U+W
SciTegic.value.DoubleValue
23.132

@<SCITEGIC>MOL_PROPERTY
U
SciTegic.value.DoubleValue
72.391

@<SCITEGIC>MOL_PROPERTY
W
SciTegic.value.DoubleValue
-49.259

@<SCITEGIC>MOL_PROPERTY
W(PB)
SciTegic.value.DoubleValue
-51.509

@<SCITEGIC>MOL_PROPERTY
W(SA)
SciTegic.value.DoubleValue
2.250

@<SCITEGIC>MOL_PROPERTY
Valence
SciTegic.value.DoubleValue
2.829

@<SCITEGIC>MOL_PROPERTY
Coulomb
SciTegic.value.DoubleValue
69.222

@<SCITEGIC>MOL_PROPERTY
VdW
SciTegic.value.DoubleValue
0.340

@<SCITEGIC>MOL_PROPERTY
VdW6
SciTegic.value.DoubleValue
-7.379

@<SCITEGIC>MOL_PROPERTY
VdW12
SciTegic.value.DoubleValue
7.719

@<SCITEGIC>MOL_PROPERTY
Bond
SciTegic.value.DoubleValue
0.228

@<SCITEGIC>MOL_PROPERTY
Angle
SciTegic.value.DoubleValue
1.104

@<SCITEGIC>MOL_PROPERTY
Pdih
SciTegic.value.DoubleValue
1.497

@<SCITEGIC>MOL_PROPERTY
Idih
SciTegic.value.DoubleValue
0.000

@<SCITEGIC>MOL_PROPERTY
Tether
SciTegic.value.DoubleValue
0.000

@<TRIPOS>MOLECULE
guest-s12_vm2.mol2 : vm2 ligand conformer 74
          26          25           1
SMALL
USER_CHARGES
 
@<TRIPOS>ATOM
       1    N1      20.505802   19.403229   25.618810 N.4        1 MOL1        -0.4857
       2    H1      20.949921   19.966370   24.878035 H          1 MOL1         0.3650
       3    H2      21.255239   18.804462   25.998852 H          1 MOL1         0.3650
       4    C1      19.403603   18.546639   25.027149 C.3        1 MOL1         0.0209
       5    H3      18.630070   19.213696   24.639628 H          1 MOL1         0.0967
       6    H4      18.968386   17.959442   25.839772 H          1 MOL1         0.0967
       7    C2      19.882679   17.597177   23.909370 C.3        1 MOL1        -0.1378
       8    H5      20.616420   16.894569   24.326227 H          1 MOL1         0.0993
       9    H6      19.031695   16.988007   23.576863 H          1 MOL1         0.0993
      10    C3      20.503012   18.318421   22.685817 C.3        1 MOL1        -0.1338
      11    H7      20.833251   17.552732   21.971930 H          1 MOL1         0.0993
      12    H8      21.407399   18.861775   22.990069 H          1 MOL1         0.0993
      13    C4      19.518369   19.289545   21.985580 C.3        1 MOL1        -0.1338
      14    H9      18.626315   18.738840   21.656665 H          1 MOL1         0.0993
      15    H10     19.168788   20.041906   22.704749 H          1 MOL1         0.0993
      16    C5      20.140035   20.032816   20.778169 C.3        1 MOL1        -0.1313
      17    H11     21.026203   20.595546   21.103429 H          1 MOL1         0.0993
      18    H12     19.419191   20.779047   20.415634 H          1 MOL1         0.0993
      19    C6      20.518304   19.098484   19.606157 C.3        1 MOL1        -0.2328
      20    H13     19.656377   18.500006   19.283831 H          1 MOL1         0.1004
      21    H14     21.329807   18.413474   19.880812 H          1 MOL1         0.1004
      22    H15     20.860708   19.684438   18.743405 H          1 MOL1         0.1004
      23    C7      19.936196   20.303687   26.705947 C.3        1 MOL1        -0.0781
      24    H16     19.498849   19.684483   27.492225 H          1 MOL1         0.0978
      25    H17     20.739858   20.915208   27.122206 H          1 MOL1         0.0978
      26    H18     19.168516   20.948483   26.272573 H          1 MOL1         0.0978
@<TRIPOS>BOND
    1     1     2    1
    2     1     3    1
    3     1     4    1
    4     4     5    1
    5     4     6    1
    6     4     7    1
    7     7     8    1
    8     7     9    1
    9     7    10    1
   10    10    11    1
   11    10    12    1
   12    10    13    1
   13    13    14    1
   14    13    15    1
   15    13    16    1
   16    16    17    1
   17    16    18    1
   18    16    19    1
   19    19    20    1
   20    19    21    1
   21    19    22    1
   22     1    23    1
   23    23    24    1
   24    23    25    1
   25    23    26    1
@<TRIPOS>SUBSTRUCTURE
       1 MOL1            1 RESIDUE      1      MOL     
@<SCITEGIC>MOL_PROPERTY
VM2 Rank
SciTegic.value.IntegerValue
74

@<SCITEGIC>MOL_PROPERTY
Conf_Id
SciTegic.value.IntegerValue
1181

@<SCITEGIC>MOL_PROPERTY
Probability
SciTegic.value.DoubleValue
0.32

@<SCITEGIC>MOL_PROPERTY
Sum Probability
SciTegic.value.DoubleValue
92.75

@<SCITEGIC>MOL_PROPERTY
Delta G
SciTegic.value.DoubleValue
1.831

@<SCITEGIC>MOL_PROPERTY
G
SciTegic.value.DoubleValue
77.297

@<SCITEGIC>MOL_PROPERTY
E
SciTegic.value.DoubleValue
44.768

@<SCITEGIC>MOL_PROPERTY
-TS
SciTegic.value.DoubleValue
32.530

@<SCITEGIC>MOL_PROPERTY
U+W
SciTegic.value.DoubleValue
23.306

@<SCITEGIC>MOL_PROPERTY
U
SciTegic.value.DoubleValue
72.579

@<SCITEGIC>MOL_PROPERTY
W
SciTegic.value.DoubleValue
-49.273

@<SCITEGIC>MOL_PROPERTY
W(PB)
SciTegic.value.DoubleValue
-51.540

@<SCITEGIC>MOL_PROPERTY
W(SA)
SciTegic.value.DoubleValue
2.267

@<SCITEGIC>MOL_PROPERTY
Valence
SciTegic.value.DoubleValue
2.677

@<SCITEGIC>MOL_PROPERTY
Coulomb
SciTegic.value.DoubleValue
69.622

@<SCITEGIC>MOL_PROPERTY
VdW
SciTegic.value.DoubleValue
0.280

@<SCITEGIC>MOL_PROPERTY
VdW6
SciTegic.value.DoubleValue
-7.328

@<SCITEGIC>MOL_PROPERTY
VdW12
SciTegic.value.DoubleValue
7.608

@<SCITEGIC>MOL_PROPERTY
Bond
SciTegic.value.DoubleValue
0.212

@<SCITEGIC>MOL_PROPERTY
Angle
SciTegic.value.DoubleValue
0.911

@<SCITEGIC>MOL_PROPERTY
Pdih
SciTegic.value.DoubleValue
1.555

@<SCITEGIC>MOL_PROPERTY
Idih
SciTegic.value.DoubleValue
0.000

@<SCITEGIC>MOL_PROPERTY
Tether
SciTegic.value.DoubleValue
0.000

@<TRIPOS>MOLECULE
guest-s12_vm2.mol2 : vm2 ligand conformer 75
          26          25           1
SMALL
USER_CHARGES
 
@<TRIPOS>ATOM
       1    N1      20.034702   19.228260   26.079632 N.4        1 MOL1        -0.4857
       2    H1      20.654933   19.729974   26.734917 H          1 MOL1         0.3650
       3    H2      19.855012   18.316737   26.528154 H          1 MOL1         0.3650
       4    C1      20.749360   19.029828   24.753768 C.3        1 MOL1         0.0209
       5    H3      21.741161   18.627206   24.974596 H          1 MOL1         0.0967
       6    H4      20.876512   20.012164   24.292623 H          1 MOL1         0.0967
       7    C2      20.029240   18.078886   23.774591 C.3        1 MOL1        -0.1378
       8    H5      19.867192   17.111531   24.267875 H          1 MOL1         0.0993
       9    H6      19.033903   18.470919   23.532290 H          1 MOL1         0.0993
      10    C3      20.832090   17.848478   22.470306 C.3        1 MOL1        -0.1338
      11    H7      20.278308   17.152576   21.826063 H          1 MOL1         0.0993
      12    H8      21.772892   17.337595   22.717692 H          1 MOL1         0.0993
      13    C4      21.164100   19.139949   21.674670 C.3        1 MOL1        -0.1338
      14    H9      21.860809   19.757993   22.256867 H          1 MOL1         0.0993
      15    H10     21.710116   18.859745   20.763332 H          1 MOL1         0.0993
      16    C5      19.939467   20.003693   21.278484 C.3        1 MOL1        -0.1313
      17    H11     20.296879   20.889590   20.735196 H          1 MOL1         0.0993
      18    H12     19.436975   20.385479   22.177382 H          1 MOL1         0.0993
      19    C6      18.921370   19.252953   20.390405 C.3        1 MOL1        -0.2328
      20    H13     19.403930   18.852256   19.489573 H          1 MOL1         0.1004
      21    H14     18.119082   19.929471   20.068716 H          1 MOL1         0.1004
      22    H15     18.454364   18.419461   20.929564 H          1 MOL1         0.1004
      23    C7      18.737671   20.007953   25.895144 C.3        1 MOL1        -0.0781
      24    H16     18.272305   20.162768   26.871129 H          1 MOL1         0.0978
      25    H17     18.961677   20.973414   25.436323 H          1 MOL1         0.0978
      26    H18     18.061989   19.439811   25.252760 H          1 MOL1         0.0978
@<TRIPOS>BOND
    1     1     2    1
    2     1     3    1
    3     1     4    1
    4     4     5    1
    5     4     6    1
    6     4     7    1
    7     7     8    1
    8     7     9    1
    9     7    10    1
   10    10    11    1
   11    10    12    1
   12    10    13    1
   13    13    14    1
   14    13    15    1
   15    13    16    1
   16    16    17    1
   17    16    18    1
   18    16    19    1
   19    19    20    1
   20    19    21    1
   21    19    22    1
   22     1    23    1
   23    23    24    1
   24    23    25    1
   25    23    26    1
@<TRIPOS>SUBSTRUCTURE
       1 MOL1            1 RESIDUE      1      MOL     
@<SCITEGIC>MOL_PROPERTY
VM2 Rank
SciTegic.value.IntegerValue
75

@<SCITEGIC>MOL_PROPERTY
Conf_Id
SciTegic.value.IntegerValue
797

@<SCITEGIC>MOL_PROPERTY
Probability
SciTegic.value.DoubleValue
0.30

@<SCITEGIC>MOL_PROPERTY
Sum Probability
SciTegic.value.DoubleValue
93.05

@<SCITEGIC>MOL_PROPERTY
Delta G
SciTegic.value.DoubleValue
1.880

@<SCITEGIC>MOL_PROPERTY
G
SciTegic.value.DoubleValue
77.346

@<SCITEGIC>MOL_PROPERTY
E
SciTegic.value.DoubleValue
44.339

@<SCITEGIC>MOL_PROPERTY
-TS
SciTegic.value.DoubleValue
33.007

@<SCITEGIC>MOL_PROPERTY
U+W
SciTegic.value.DoubleValue
22.877

@<SCITEGIC>MOL_PROPERTY
U
SciTegic.value.DoubleValue
72.761

@<SCITEGIC>MOL_PROPERTY
W
SciTegic.value.DoubleValue
-49.885

@<SCITEGIC>MOL_PROPERTY
W(PB)
SciTegic.value.DoubleValue
-52.086

@<SCITEGIC>MOL_PROPERTY
W(SA)
SciTegic.value.DoubleValue
2.202

@<SCITEGIC>MOL_PROPERTY
Valence
SciTegic.value.DoubleValue
3.172

@<SCITEGIC>MOL_PROPERTY
Coulomb
SciTegic.value.DoubleValue
69.298

@<SCITEGIC>MOL_PROPERTY
VdW
SciTegic.value.DoubleValue
0.291

@<SCITEGIC>MOL_PROPERTY
VdW6
SciTegic.value.DoubleValue
-8.615

@<SCITEGIC>MOL_PROPERTY
VdW12
SciTegic.value.DoubleValue
8.906

@<SCITEGIC>MOL_PROPERTY
Bond
SciTegic.value.DoubleValue
0.269

@<SCITEGIC>MOL_PROPERTY
Angle
SciTegic.value.DoubleValue
1.270

@<SCITEGIC>MOL_PROPERTY
Pdih
SciTegic.value.DoubleValue
1.633

@<SCITEGIC>MOL_PROPERTY
Idih
SciTegic.value.DoubleValue
0.000

@<SCITEGIC>MOL_PROPERTY
Tether
SciTegic.value.DoubleValue
0.000

@<TRIPOS>MOLECULE
guest-s12_vm2.mol2 : vm2 ligand conformer 76
          26          25           1
SMALL
USER_CHARGES
 
@<TRIPOS>ATOM
       1    N1      19.377273   19.288608   25.578875 N.4        1 MOL1        -0.4857
       2    H1      18.738579   18.548879   25.909754 H          1 MOL1         0.3650
       3    H2      18.882113   19.756373   24.804839 H          1 MOL1         0.3650
       4    C1      20.667673   18.674982   25.071943 C.3        1 MOL1         0.0209
       5    H3      21.153911   18.181323   25.917191 H          1 MOL1         0.0967
       6    H4      21.316741   19.486500   24.734839 H          1 MOL1         0.0967
       7    C2      20.468458   17.656675   23.930108 C.3        1 MOL1        -0.1378
       8    H5      21.445577   17.233158   23.662346 H          1 MOL1         0.0993
       9    H6      19.863378   16.818095   24.299520 H          1 MOL1         0.0993
      10    C3      19.803187   18.247385   22.661027 C.3        1 MOL1        -0.1338
      11    H7      18.789039   18.595799   22.897308 H          1 MOL1         0.0993
      12    H8      19.684333   17.436111   21.931178 H          1 MOL1         0.0993
      13    C4      20.619270   19.401509   22.024673 C.3        1 MOL1        -0.1338
      14    H9      20.759142   20.203657   22.761187 H          1 MOL1         0.0993
      15    H10     21.624645   19.043664   21.763159 H          1 MOL1         0.0993
      16    C5      19.947252   20.013206   20.771285 C.3        1 MOL1        -0.1313
      17    H11     20.526960   20.891728   20.454983 H          1 MOL1         0.0993
      18    H12     18.945401   20.383890   21.029435 H          1 MOL1         0.0993
      19    C6      19.847933   19.030304   19.582286 C.3        1 MOL1        -0.2328
      20    H13     19.456186   19.541589   18.693439 H          1 MOL1         0.1004
      21    H14     19.173514   18.194143   19.804105 H          1 MOL1         0.1004
      22    H15     20.833085   18.619714   19.325615 H          1 MOL1         0.1004
      23    C7      19.676954   20.277331   26.696804 C.3        1 MOL1        -0.0781
      24    H16     20.327939   21.066212   26.313667 H          1 MOL1         0.0978
      25    H17     18.739747   20.712045   27.051441 H          1 MOL1         0.0978
      26    H18     20.173597   19.752969   27.516137 H          1 MOL1         0.0978
@<TRIPOS>BOND
    1     1     2    1
    2     1     3    1
    3     1     4    1
    4     4     5    1
    5     4     6    1
    6     4     7    1
    7     7     8    1
    8     7     9    1
    9     7    10    1
   10    10    11    1
   11    10    12    1
   12    10    13    1
   13    13    14    1
   14    13    15    1
   15    13    16    1
   16    16    17    1
   17    16    18    1
   18    16    19    1
   19    19    20    1
   20    19    21    1
   21    19    22    1
   22     1    23    1
   23    23    24    1
   24    23    25    1
   25    23    26    1
@<TRIPOS>SUBSTRUCTURE
       1 MOL1            1 RESIDUE      1      MOL     
@<SCITEGIC>MOL_PROPERTY
VM2 Rank
SciTegic.value.IntegerValue
76

@<SCITEGIC>MOL_PROPERTY
Conf_Id
SciTegic.value.IntegerValue
1436

@<SCITEGIC>MOL_PROPERTY
Probability
SciTegic.value.DoubleValue
0.29

@<SCITEGIC>MOL_PROPERTY
Sum Probability
SciTegic.value.DoubleValue
93.34

@<SCITEGIC>MOL_PROPERTY
Delta G
SciTegic.value.DoubleValue
1.887

@<SCITEGIC>MOL_PROPERTY
G
SciTegic.value.DoubleValue
77.353

@<SCITEGIC>MOL_PROPERTY
E
SciTegic.value.DoubleValue
44.823

@<SCITEGIC>MOL_PROPERTY
-TS
SciTegic.value.DoubleValue
32.530

@<SCITEGIC>MOL_PROPERTY
U+W
SciTegic.value.DoubleValue
23.361

@<SCITEGIC>MOL_PROPERTY
U
SciTegic.value.DoubleValue
72.579

@<SCITEGIC>MOL_PROPERTY
W
SciTegic.value.DoubleValue
-49.218

@<SCITEGIC>MOL_PROPERTY
W(PB)
SciTegic.value.DoubleValue
-51.496

@<SCITEGIC>MOL_PROPERTY
W(SA)
SciTegic.value.DoubleValue
2.279

@<SCITEGIC>MOL_PROPERTY
Valence
SciTegic.value.DoubleValue
2.678

@<SCITEGIC>MOL_PROPERTY
Coulomb
SciTegic.value.DoubleValue
69.622

@<SCITEGIC>MOL_PROPERTY
VdW
SciTegic.value.DoubleValue
0.279

@<SCITEGIC>MOL_PROPERTY
VdW6
SciTegic.value.DoubleValue
-7.328

@<SCITEGIC>MOL_PROPERTY
VdW12
SciTegic.value.DoubleValue
7.607

@<SCITEGIC>MOL_PROPERTY
Bond
SciTegic.value.DoubleValue
0.212

@<SCITEGIC>MOL_PROPERTY
Angle
SciTegic.value.DoubleValue
0.911

@<SCITEGIC>MOL_PROPERTY
Pdih
SciTegic.value.DoubleValue
1.555

@<SCITEGIC>MOL_PROPERTY
Idih
SciTegic.value.DoubleValue
0.000

@<SCITEGIC>MOL_PROPERTY
Tether
SciTegic.value.DoubleValue
0.000

@<TRIPOS>MOLECULE
guest-s12_vm2.mol2 : vm2 ligand conformer 77
          26          25           1
SMALL
USER_CHARGES
 
@<TRIPOS>ATOM
       1    N1      20.483846   18.832241   25.790164 N.4        1 MOL1        -0.4857
       2    H1      21.087432   18.152200   25.304566 H          1 MOL1         0.3650
       3    H2      20.463598   18.518460   26.773485 H          1 MOL1         0.3650
       4    C1      19.077419   18.787582   25.212861 C.3        1 MOL1         0.0209
       5    H3      18.474914   19.522756   25.752282 H          1 MOL1         0.0967
       6    H4      18.668547   17.796631   25.426001 H          1 MOL1         0.0967
       7    C2      18.980672   19.054723   23.695007 C.3        1 MOL1        -0.1378
       8    H5      17.922658   19.020337   23.403745 H          1 MOL1         0.0993
       9    H6      19.328041   20.073025   23.482123 H          1 MOL1         0.0993
      10    C3      19.777605   18.025167   22.855743 C.3        1 MOL1        -0.1338
      11    H7      19.467516   17.011692   23.145724 H          1 MOL1         0.0993
      12    H8      20.847414   18.093900   23.090660 H          1 MOL1         0.0993
      13    C4      19.570638   18.181939   21.327058 C.3        1 MOL1        -0.1338
      14    H9      20.137873   17.394263   20.812254 H          1 MOL1         0.0993
      15    H10     18.514501   17.996011   21.087859 H          1 MOL1         0.0993
      16    C5      19.980752   19.557938   20.742201 C.3        1 MOL1        -0.1313
      17    H11     19.337053   20.349981   21.147688 H          1 MOL1         0.0993
      18    H12     19.795056   19.546490   19.659086 H          1 MOL1         0.0993
      19    C6      21.464422   19.914628   20.988830 C.3        1 MOL1        -0.2328
      20    H13     21.672424   20.055972   22.056643 H          1 MOL1         0.1004
      21    H14     21.725674   20.848959   20.475403 H          1 MOL1         0.1004
      22    H15     22.127993   19.126554   20.609979 H          1 MOL1         0.1004
      23    C7      21.072646   20.235780   25.705136 C.3        1 MOL1        -0.0781
      24    H16     21.148189   20.532717   24.657173 H          1 MOL1         0.0978
      25    H17     20.422744   20.930345   26.241785 H          1 MOL1         0.0978
      26    H18     22.066085   20.234623   26.159140 H          1 MOL1         0.0978
@<TRIPOS>BOND
    1     1     2    1
    2     1     3    1
    3     1     4    1
    4     4     5    1
    5     4     6    1
    6     4     7    1
    7     7     8    1
    8     7     9    1
    9     7    10    1
   10    10    11    1
   11    10    12    1
   12    10    13    1
   13    13    14    1
   14    13    15    1
   15    13    16    1
   16    16    17    1
   17    16    18    1
   18    16    19    1
   19    19    20    1
   20    19    21    1
   21    19    22    1
   22     1    23    1
   23    23    24    1
   24    23    25    1
   25    23    26    1
@<TRIPOS>SUBSTRUCTURE
       1 MOL1            1 RESIDUE      1      MOL     
@<SCITEGIC>MOL_PROPERTY
VM2 Rank
SciTegic.value.IntegerValue
77

@<SCITEGIC>MOL_PROPERTY
Conf_Id
SciTegic.value.IntegerValue
475

@<SCITEGIC>MOL_PROPERTY
Probability
SciTegic.value.DoubleValue
0.29

@<SCITEGIC>MOL_PROPERTY
Sum Probability
SciTegic.value.DoubleValue
93.63

@<SCITEGIC>MOL_PROPERTY
Delta G
SciTegic.value.DoubleValue
1.895

@<SCITEGIC>MOL_PROPERTY
G
SciTegic.value.DoubleValue
77.361

@<SCITEGIC>MOL_PROPERTY
E
SciTegic.value.DoubleValue
44.399

@<SCITEGIC>MOL_PROPERTY
-TS
SciTegic.value.DoubleValue
32.963

@<SCITEGIC>MOL_PROPERTY
U+W
SciTegic.value.DoubleValue
22.937

@<SCITEGIC>MOL_PROPERTY
U
SciTegic.value.DoubleValue
72.925

@<SCITEGIC>MOL_PROPERTY
W
SciTegic.value.DoubleValue
-49.989

@<SCITEGIC>MOL_PROPERTY
W(PB)
SciTegic.value.DoubleValue
-52.181

@<SCITEGIC>MOL_PROPERTY
W(SA)
SciTegic.value.DoubleValue
2.192

@<SCITEGIC>MOL_PROPERTY
Valence
SciTegic.value.DoubleValue
3.007

@<SCITEGIC>MOL_PROPERTY
Coulomb
SciTegic.value.DoubleValue
69.583

@<SCITEGIC>MOL_PROPERTY
VdW
SciTegic.value.DoubleValue
0.336

@<SCITEGIC>MOL_PROPERTY
VdW6
SciTegic.value.DoubleValue
-8.608

@<SCITEGIC>MOL_PROPERTY
VdW12
SciTegic.value.DoubleValue
8.943

@<SCITEGIC>MOL_PROPERTY
Bond
SciTegic.value.DoubleValue
0.266

@<SCITEGIC>MOL_PROPERTY
Angle
SciTegic.value.DoubleValue
1.183

@<SCITEGIC>MOL_PROPERTY
Pdih
SciTegic.value.DoubleValue
1.558

@<SCITEGIC>MOL_PROPERTY
Idih
SciTegic.value.DoubleValue
0.000

@<SCITEGIC>MOL_PROPERTY
Tether
SciTegic.value.DoubleValue
0.000

@<TRIPOS>MOLECULE
guest-s12_vm2.mol2 : vm2 ligand conformer 78
          26          25           1
SMALL
USER_CHARGES
 
@<TRIPOS>ATOM
       1    N1      19.840575   19.208550   26.072723 N.4        1 MOL1        -0.4857
       2    H1      20.167505   18.348377   26.539149 H          1 MOL1         0.3650
       3    H2      19.088067   19.571075   26.679441 H          1 MOL1         0.3650
       4    C1      19.274757   18.880341   24.701534 C.3        1 MOL1         0.0209
       5    H3      18.985951   19.820520   24.225657 H          1 MOL1         0.0967
       6    H4      18.370768   18.285603   24.855251 H          1 MOL1         0.0967
       7    C2      20.237555   18.099938   23.781945 C.3        1 MOL1        -0.1378
       8    H5      21.148655   18.685135   23.607201 H          1 MOL1         0.0993
       9    H6      20.555153   17.181166   24.292192 H          1 MOL1         0.0993
      10    C3      19.590520   17.722670   22.426277 C.3        1 MOL1        -0.1338
      11    H7      18.756143   17.031949   22.610744 H          1 MOL1         0.0993
      12    H8      20.316221   17.156398   21.827364 H          1 MOL1         0.0993
      13    C4      19.063136   18.927094   21.600207 C.3        1 MOL1        -0.1338
      14    H9      18.649577   18.549696   20.654837 H          1 MOL1         0.0993
      15    H10     18.217678   19.388872   22.127743 H          1 MOL1         0.0993
      16    C5      20.114610   20.021461   21.284754 C.3        1 MOL1        -0.1313
      17    H11     20.466122   20.489778   22.213944 H          1 MOL1         0.0993
      18    H12     19.625965   20.821632   20.711456 H          1 MOL1         0.0993
      19    C6      21.322197   19.496240   20.475624 C.3        1 MOL1        -0.2328
      20    H13     20.994090   19.013346   19.546066 H          1 MOL1         0.1004
      21    H14     21.907765   18.769444   21.052144 H          1 MOL1         0.1004
      22    H15     21.993198   20.322052   20.206145 H          1 MOL1         0.1004
      23    C7      20.964649   20.233706   25.973936 C.3        1 MOL1        -0.0781
      24    H16     20.584319   21.137903   25.493742 H          1 MOL1         0.0978
      25    H17     21.320077   20.471724   26.978973 H          1 MOL1         0.0978
      26    H18     21.783765   19.817126   25.384445 H          1 MOL1         0.0978
@<TRIPOS>BOND
    1     1     2    1
    2     1     3    1
    3     1     4    1
    4     4     5    1
    5     4     6    1
    6     4     7    1
    7     7     8    1
    8     7     9    1
    9     7    10    1
   10    10    11    1
   11    10    12    1
   12    10    13    1
   13    13    14    1
   14    13    15    1
   15    13    16    1
   16    16    17    1
   17    16    18    1
   18    16    19    1
   19    19    20    1
   20    19    21    1
   21    19    22    1
   22     1    23    1
   23    23    24    1
   24    23    25    1
   25    23    26    1
@<TRIPOS>SUBSTRUCTURE
       1 MOL1            1 RESIDUE      1      MOL     
@<SCITEGIC>MOL_PROPERTY
VM2 Rank
SciTegic.value.IntegerValue
78

@<SCITEGIC>MOL_PROPERTY
Conf_Id
SciTegic.value.IntegerValue
955

@<SCITEGIC>MOL_PROPERTY
Probability
SciTegic.value.DoubleValue
0.29

@<SCITEGIC>MOL_PROPERTY
Sum Probability
SciTegic.value.DoubleValue
93.91

@<SCITEGIC>MOL_PROPERTY
Delta G
SciTegic.value.DoubleValue
1.900

@<SCITEGIC>MOL_PROPERTY
G
SciTegic.value.DoubleValue
77.366

@<SCITEGIC>MOL_PROPERTY
E
SciTegic.value.DoubleValue
44.358

@<SCITEGIC>MOL_PROPERTY
-TS
SciTegic.value.DoubleValue
33.007

@<SCITEGIC>MOL_PROPERTY
U+W
SciTegic.value.DoubleValue
22.897

@<SCITEGIC>MOL_PROPERTY
U
SciTegic.value.DoubleValue
72.761

@<SCITEGIC>MOL_PROPERTY
W
SciTegic.value.DoubleValue
-49.865

@<SCITEGIC>MOL_PROPERTY
W(PB)
SciTegic.value.DoubleValue
-52.061

@<SCITEGIC>MOL_PROPERTY
W(SA)
SciTegic.value.DoubleValue
2.196

@<SCITEGIC>MOL_PROPERTY
Valence
SciTegic.value.DoubleValue
3.172

@<SCITEGIC>MOL_PROPERTY
Coulomb
SciTegic.value.DoubleValue
69.298

@<SCITEGIC>MOL_PROPERTY
VdW
SciTegic.value.DoubleValue
0.291

@<SCITEGIC>MOL_PROPERTY
VdW6
SciTegic.value.DoubleValue
-8.615

@<SCITEGIC>MOL_PROPERTY
VdW12
SciTegic.value.DoubleValue
8.906

@<SCITEGIC>MOL_PROPERTY
Bond
SciTegic.value.DoubleValue
0.269

@<SCITEGIC>MOL_PROPERTY
Angle
SciTegic.value.DoubleValue
1.270

@<SCITEGIC>MOL_PROPERTY
Pdih
SciTegic.value.DoubleValue
1.633

@<SCITEGIC>MOL_PROPERTY
Idih
SciTegic.value.DoubleValue
0.000

@<SCITEGIC>MOL_PROPERTY
Tether
SciTegic.value.DoubleValue
0.000

@<TRIPOS>MOLECULE
guest-s12_vm2.mol2 : vm2 ligand conformer 79
          26          25           1
SMALL
USER_CHARGES
 
@<TRIPOS>ATOM
       1    N1      20.678034   18.989711   25.403420 N.4        1 MOL1        -0.4857
       2    H1      21.285294   19.073131   24.574361 H          1 MOL1         0.3650
       3    H2      20.872179   18.055895   25.797022 H          1 MOL1         0.3650
       4    C1      19.222601   19.089116   24.990381 C.3        1 MOL1         0.0209
       5    H3      19.055608   20.089898   24.585094 H          1 MOL1         0.0967
       6    H4      18.614065   18.982167   25.891942 H          1 MOL1         0.0967
       7    C2      18.794441   18.029483   23.954077 C.3        1 MOL1        -0.1378
       8    H5      18.914572   17.029222   24.390926 H          1 MOL1         0.0993
       9    H6      17.721455   18.148114   23.752982 H          1 MOL1         0.0993
      10    C3      19.576168   18.103405   22.618250 C.3        1 MOL1        -0.1338
      11    H7      19.205465   17.312485   21.951732 H          1 MOL1         0.0993
      12    H8      20.634529   17.877907   22.800047 H          1 MOL1         0.0993
      13    C4      19.435917   19.473633   21.907774 C.3        1 MOL1        -0.1338
      14    H9      18.369283   19.718090   21.808469 H          1 MOL1         0.0993
      15    H10     19.879253   20.267723   22.523331 H          1 MOL1         0.0993
      16    C5      20.080337   19.504096   20.500863 C.3        1 MOL1        -0.1313
      17    H11     19.844510   20.466623   20.025672 H          1 MOL1         0.0993
      18    H12     19.626673   18.729632   19.866661 H          1 MOL1         0.0993
      19    C6      21.615368   19.323479   20.525058 C.3        1 MOL1        -0.2328
      20    H13     22.031695   19.442659   19.516396 H          1 MOL1         0.1004
      21    H14     21.898909   18.325698   20.881982 H          1 MOL1         0.1004
      22    H15     22.091109   20.070102   21.174025 H          1 MOL1         0.1004
      23    C7      21.005135   20.077079   26.417177 C.3        1 MOL1        -0.0781
      24    H16     20.370774   19.949911   27.297138 H          1 MOL1         0.0978
      25    H17     22.055647   19.994541   26.704773 H          1 MOL1         0.0978
      26    H18     20.821589   21.055018   25.966786 H          1 MOL1         0.0978
@<TRIPOS>BOND
    1     1     2    1
    2     1     3    1
    3     1     4    1
    4     4     5    1
    5     4     6    1
    6     4     7    1
    7     7     8    1
    8     7     9    1
    9     7    10    1
   10    10    11    1
   11    10    12    1
   12    10    13    1
   13    13    14    1
   14    13    15    1
   15    13    16    1
   16    16    17    1
   17    16    18    1
   18    16    19    1
   19    19    20    1
   20    19    21    1
   21    19    22    1
   22     1    23    1
   23    23    24    1
   24    23    25    1
   25    23    26    1
@<TRIPOS>SUBSTRUCTURE
       1 MOL1            1 RESIDUE      1      MOL     
@<SCITEGIC>MOL_PROPERTY
VM2 Rank
SciTegic.value.IntegerValue
79

@<SCITEGIC>MOL_PROPERTY
Conf_Id
SciTegic.value.IntegerValue
414

@<SCITEGIC>MOL_PROPERTY
Probability
SciTegic.value.DoubleValue
0.29

@<SCITEGIC>MOL_PROPERTY
Sum Probability
SciTegic.value.DoubleValue
94.20

@<SCITEGIC>MOL_PROPERTY
Delta G
SciTegic.value.DoubleValue
1.901

@<SCITEGIC>MOL_PROPERTY
G
SciTegic.value.DoubleValue
77.367

@<SCITEGIC>MOL_PROPERTY
E
SciTegic.value.DoubleValue
44.799

@<SCITEGIC>MOL_PROPERTY
-TS
SciTegic.value.DoubleValue
32.567

@<SCITEGIC>MOL_PROPERTY
U+W
SciTegic.value.DoubleValue
23.337

@<SCITEGIC>MOL_PROPERTY
U
SciTegic.value.DoubleValue
72.650

@<SCITEGIC>MOL_PROPERTY
W
SciTegic.value.DoubleValue
-49.313

@<SCITEGIC>MOL_PROPERTY
W(PB)
SciTegic.value.DoubleValue
-51.570

@<SCITEGIC>MOL_PROPERTY
W(SA)
SciTegic.value.DoubleValue
2.258

@<SCITEGIC>MOL_PROPERTY
Valence
SciTegic.value.DoubleValue
2.607

@<SCITEGIC>MOL_PROPERTY
Coulomb
SciTegic.value.DoubleValue
69.873

@<SCITEGIC>MOL_PROPERTY
VdW
SciTegic.value.DoubleValue
0.170

@<SCITEGIC>MOL_PROPERTY
VdW6
SciTegic.value.DoubleValue
-7.459

@<SCITEGIC>MOL_PROPERTY
VdW12
SciTegic.value.DoubleValue
7.629

@<SCITEGIC>MOL_PROPERTY
Bond
SciTegic.value.DoubleValue
0.205

@<SCITEGIC>MOL_PROPERTY
Angle
SciTegic.value.DoubleValue
0.826

@<SCITEGIC>MOL_PROPERTY
Pdih
SciTegic.value.DoubleValue
1.577

@<SCITEGIC>MOL_PROPERTY
Idih
SciTegic.value.DoubleValue
0.000

@<SCITEGIC>MOL_PROPERTY
Tether
SciTegic.value.DoubleValue
0.000

@<TRIPOS>MOLECULE
guest-s12_vm2.mol2 : vm2 ligand conformer 80
          26          25           1
SMALL
USER_CHARGES
 
@<TRIPOS>ATOM
       1    N1      19.778134   18.415667   25.530732 N.4        1 MOL1        -0.4857
       2    H1      20.311118   17.576933   25.253341 H          1 MOL1         0.3650
       3    H2      18.873547   18.343672   25.041215 H          1 MOL1         0.3650
       4    C1      20.510183   19.668471   25.089823 C.3        1 MOL1         0.0209
       5    H3      21.459408   19.703405   25.630519 H          1 MOL1         0.0967
       6    H4      19.913049   20.532315   25.392514 H          1 MOL1         0.0967
       7    C2      20.782566   19.731656   23.574163 C.3        1 MOL1        -0.1378
       8    H5      21.395556   20.618970   23.367808 H          1 MOL1         0.0993
       9    H6      21.381063   18.860121   23.280072 H          1 MOL1         0.0993
      10    C3      19.480641   19.801768   22.737544 C.3        1 MOL1        -0.1338
      11    H7      18.856563   20.622624   23.117387 H          1 MOL1         0.0993
      12    H8      18.891994   18.885770   22.874552 H          1 MOL1         0.0993
      13    C4      19.730684   20.038442   21.225616 C.3        1 MOL1        -0.1338
      14    H9      18.760535   20.114327   20.715423 H          1 MOL1         0.0993
      15    H10     20.216693   21.014759   21.092029 H          1 MOL1         0.0993
      16    C5      20.584839   18.954688   20.519107 C.3        1 MOL1        -0.1313
      17    H11     21.602237   18.943566   20.932520 H          1 MOL1         0.0993
      18    H12     20.694465   19.231176   19.461134 H          1 MOL1         0.0993
      19    C6      19.972614   17.537854   20.601733 C.3        1 MOL1        -0.2328
      20    H13     19.952629   17.167512   21.634116 H          1 MOL1         0.1004
      21    H14     20.563696   16.828465   20.008231 H          1 MOL1         0.1004
      22    H15     18.946401   17.527972   20.212213 H          1 MOL1         0.1004
      23    C7      19.568338   18.441454   27.038282 C.3        1 MOL1        -0.0781
      24    H16     20.539909   18.486374   27.535234 H          1 MOL1         0.0978
      25    H17     18.976054   19.319986   27.303452 H          1 MOL1         0.0978
      26    H18     19.040159   17.534917   27.342145 H          1 MOL1         0.0978
@<TRIPOS>BOND
    1     1     2    1
    2     1     3    1
    3     1     4    1
    4     4     5    1
    5     4     6    1
    6     4     7    1
    7     7     8    1
    8     7     9    1
    9     7    10    1
   10    10    11    1
   11    10    12    1
   12    10    13    1
   13    13    14    1
   14    13    15    1
   15    13    16    1
   16    16    17    1
   17    16    18    1
   18    16    19    1
   19    19    20    1
   20    19    21    1
   21    19    22    1
   22     1    23    1
   23    23    24    1
   24    23    25    1
   25    23    26    1
@<TRIPOS>SUBSTRUCTURE
       1 MOL1            1 RESIDUE      1      MOL     
@<SCITEGIC>MOL_PROPERTY
VM2 Rank
SciTegic.value.IntegerValue
80

@<SCITEGIC>MOL_PROPERTY
Conf_Id
SciTegic.value.IntegerValue
844

@<SCITEGIC>MOL_PROPERTY
Probability
SciTegic.value.DoubleValue
0.28

@<SCITEGIC>MOL_PROPERTY
Sum Probability
SciTegic.value.DoubleValue
94.48

@<SCITEGIC>MOL_PROPERTY
Delta G
SciTegic.value.DoubleValue
1.920

@<SCITEGIC>MOL_PROPERTY
G
SciTegic.value.DoubleValue
77.386

@<SCITEGIC>MOL_PROPERTY
E
SciTegic.value.DoubleValue
44.699

@<SCITEGIC>MOL_PROPERTY
-TS
SciTegic.value.DoubleValue
32.687

@<SCITEGIC>MOL_PROPERTY
U+W
SciTegic.value.DoubleValue
23.237

@<SCITEGIC>MOL_PROPERTY
U
SciTegic.value.DoubleValue
72.709

@<SCITEGIC>MOL_PROPERTY
W
SciTegic.value.DoubleValue
-49.472

@<SCITEGIC>MOL_PROPERTY
W(PB)
SciTegic.value.DoubleValue
-51.724

@<SCITEGIC>MOL_PROPERTY
W(SA)
SciTegic.value.DoubleValue
2.252

@<SCITEGIC>MOL_PROPERTY
Valence
SciTegic.value.DoubleValue
2.790

@<SCITEGIC>MOL_PROPERTY
Coulomb
SciTegic.value.DoubleValue
69.679

@<SCITEGIC>MOL_PROPERTY
VdW
SciTegic.value.DoubleValue
0.240

@<SCITEGIC>MOL_PROPERTY
VdW6
SciTegic.value.DoubleValue
-7.473

@<SCITEGIC>MOL_PROPERTY
VdW12
SciTegic.value.DoubleValue
7.713

@<SCITEGIC>MOL_PROPERTY
Bond
SciTegic.value.DoubleValue
0.222

@<SCITEGIC>MOL_PROPERTY
Angle
SciTegic.value.DoubleValue
1.030

@<SCITEGIC>MOL_PROPERTY
Pdih
SciTegic.value.DoubleValue
1.538

@<SCITEGIC>MOL_PROPERTY
Idih
SciTegic.value.DoubleValue
0.000

@<SCITEGIC>MOL_PROPERTY
Tether
SciTegic.value.DoubleValue
0.000

@<TRIPOS>MOLECULE
guest-s12_vm2.mol2 : vm2 ligand conformer 81
          26          25           1
SMALL
USER_CHARGES
 
@<TRIPOS>ATOM
       1    N1      19.307118   18.850458   25.355022 N.4        1 MOL1        -0.4857
       2    H1      19.277445   17.893832   25.740522 H          1 MOL1         0.3650
       3    H2      18.754928   18.816284   24.484975 H          1 MOL1         0.3650
       4    C1      20.738169   19.243122   25.044091 C.3        1 MOL1         0.0209
       5    H3      21.291206   19.254170   25.986742 H          1 MOL1         0.0967
       6    H4      20.728665   20.259911   24.644389 H          1 MOL1         0.0967
       7    C2      21.441870   18.298491   24.047826 C.3        1 MOL1        -0.1378
       8    H5      22.480559   18.631628   23.921508 H          1 MOL1         0.0993
       9    H6      21.494798   17.291387   24.482257 H          1 MOL1         0.0993
      10    C3      20.756712   18.223460   22.660050 C.3        1 MOL1        -0.1338
      11    H7      19.755165   17.788608   22.768852 H          1 MOL1         0.0993
      12    H8      21.324520   17.527982   22.026707 H          1 MOL1         0.0993
      13    C4      20.668159   19.599014   21.951548 C.3        1 MOL1        -0.1338
      14    H9      20.032004   20.283228   22.528777 H          1 MOL1         0.0993
      15    H10     21.668125   20.053696   21.925812 H          1 MOL1         0.0993
      16    C5      20.131382   19.509477   20.502597 C.3        1 MOL1        -0.1313
      17    H11     20.775107   18.846840   19.907329 H          1 MOL1         0.0993
      18    H12     20.201483   20.503231   20.038464 H          1 MOL1         0.0993
      19    C6      18.666304   19.023430   20.419950 C.3        1 MOL1        -0.2328
      20    H13     18.306537   19.063742   19.383671 H          1 MOL1         0.1004
      21    H14     18.005563   19.654263   21.028559 H          1 MOL1         0.1004
      22    H15     18.565005   17.986419   20.763032 H          1 MOL1         0.1004
      23    C7      18.698286   19.842547   26.335916 C.3        1 MOL1        -0.0781
      24    H16     18.712815   20.840712   25.892790 H          1 MOL1         0.0978
      25    H17     17.668240   19.548698   26.549833 H          1 MOL1         0.0978
      26    H18     19.282119   19.838837   27.258976 H          1 MOL1         0.0978
@<TRIPOS>BOND
    1     1     2    1
    2     1     3    1
    3     1     4    1
    4     4     5    1
    5     4     6    1
    6     4     7    1
    7     7     8    1
    8     7     9    1
    9     7    10    1
   10    10    11    1
   11    10    12    1
   12    10    13    1
   13    13    14    1
   14    13    15    1
   15    13    16    1
   16    16    17    1
   17    16    18    1
   18    16    19    1
   19    19    20    1
   20    19    21    1
   21    19    22    1
   22     1    23    1
   23    23    24    1
   24    23    25    1
   25    23    26    1
@<TRIPOS>SUBSTRUCTURE
       1 MOL1            1 RESIDUE      1      MOL     
@<SCITEGIC>MOL_PROPERTY
VM2 Rank
SciTegic.value.IntegerValue
81

@<SCITEGIC>MOL_PROPERTY
Conf_Id
SciTegic.value.IntegerValue
158

@<SCITEGIC>MOL_PROPERTY
Probability
SciTegic.value.DoubleValue
0.27

@<SCITEGIC>MOL_PROPERTY
Sum Probability
SciTegic.value.DoubleValue
94.74

@<SCITEGIC>MOL_PROPERTY
Delta G
SciTegic.value.DoubleValue
1.939

@<SCITEGIC>MOL_PROPERTY
G
SciTegic.value.DoubleValue
77.405

@<SCITEGIC>MOL_PROPERTY
E
SciTegic.value.DoubleValue
44.838

@<SCITEGIC>MOL_PROPERTY
-TS
SciTegic.value.DoubleValue
32.567

@<SCITEGIC>MOL_PROPERTY
U+W
SciTegic.value.DoubleValue
23.376

@<SCITEGIC>MOL_PROPERTY
U
SciTegic.value.DoubleValue
72.650

@<SCITEGIC>MOL_PROPERTY
W
SciTegic.value.DoubleValue
-49.273

@<SCITEGIC>MOL_PROPERTY
W(PB)
SciTegic.value.DoubleValue
-51.526

@<SCITEGIC>MOL_PROPERTY
W(SA)
SciTegic.value.DoubleValue
2.252

@<SCITEGIC>MOL_PROPERTY
Valence
SciTegic.value.DoubleValue
2.608

@<SCITEGIC>MOL_PROPERTY
Coulomb
SciTegic.value.DoubleValue
69.872

@<SCITEGIC>MOL_PROPERTY
VdW
SciTegic.value.DoubleValue
0.170

@<SCITEGIC>MOL_PROPERTY
VdW6
SciTegic.value.DoubleValue
-7.459

@<SCITEGIC>MOL_PROPERTY
VdW12
SciTegic.value.DoubleValue
7.629

@<SCITEGIC>MOL_PROPERTY
Bond
SciTegic.value.DoubleValue
0.205

@<SCITEGIC>MOL_PROPERTY
Angle
SciTegic.value.DoubleValue
0.826

@<SCITEGIC>MOL_PROPERTY
Pdih
SciTegic.value.DoubleValue
1.577

@<SCITEGIC>MOL_PROPERTY
Idih
SciTegic.value.DoubleValue
0.000

@<SCITEGIC>MOL_PROPERTY
Tether
SciTegic.value.DoubleValue
0.000

@<TRIPOS>MOLECULE
guest-s12_vm2.mol2 : vm2 ligand conformer 82
          26          25           1
SMALL
USER_CHARGES
 
@<TRIPOS>ATOM
       1    N1      20.125131   18.964925   26.427672 N.4        1 MOL1        -0.4857
       2    H1      20.814201   18.209361   26.563784 H          1 MOL1         0.3650
       3    H2      19.683392   19.086313   27.352832 H          1 MOL1         0.3650
       4    C1      19.064820   18.534384   25.423118 C.3        1 MOL1         0.0209
       5    H3      18.360335   19.358530   25.286249 H          1 MOL1         0.0967
       6    H4      18.522114   17.708939   25.891000 H          1 MOL1         0.0967
       7    C2      19.588732   18.047302   24.053377 C.3        1 MOL1        -0.1378
       8    H5      20.555123   17.541462   24.179302 H          1 MOL1         0.0993
       9    H6      18.890206   17.288251   23.676949 H          1 MOL1         0.0993
      10    C3      19.696555   19.175930   22.999568 C.3        1 MOL1        -0.1338
      11    H7      20.403548   19.944352   23.333272 H          1 MOL1         0.0993
      12    H8      18.720729   19.670109   22.894648 H          1 MOL1         0.0993
      13    C4      20.150010   18.635031   21.624340 C.3        1 MOL1        -0.1338
      14    H9      21.124407   18.137838   21.728572 H          1 MOL1         0.0993
      15    H10     19.439942   17.872011   21.276360 H          1 MOL1         0.0993
      16    C5      20.255741   19.758562   20.568969 C.3        1 MOL1        -0.1313
      17    H11     20.967489   20.523202   20.910613 H          1 MOL1         0.0993
      18    H12     19.282774   20.257940   20.459688 H          1 MOL1         0.0993
      19    C6      20.708668   19.214499   19.197215 C.3        1 MOL1        -0.2328
      20    H13     21.695610   18.738860   19.267299 H          1 MOL1         0.1004
      21    H14     20.777768   20.026444   18.461692 H          1 MOL1         0.1004
      22    H15     19.997746   18.471574   18.812699 H          1 MOL1         0.1004
      23    C7      20.818344   20.259367   26.022740 C.3        1 MOL1        -0.0781
      24    H16     21.485142   20.573183   26.828951 H          1 MOL1         0.0978
      25    H17     21.401129   20.087240   25.116441 H          1 MOL1         0.0978
      26    H18     20.065870   21.030640   25.844714 H          1 MOL1         0.0978
@<TRIPOS>BOND
    1     1     2    1
    2     1     3    1
    3     1     4    1
    4     4     5    1
    5     4     6    1
    6     4     7    1
    7     7     8    1
    8     7     9    1
    9     7    10    1
   10    10    11    1
   11    10    12    1
   12    10    13    1
   13    13    14    1
   14    13    15    1
   15    13    16    1
   16    16    17    1
   17    16    18    1
   18    16    19    1
   19    19    20    1
   20    19    21    1
   21    19    22    1
   22     1    23    1
   23    23    24    1
   24    23    25    1
   25    23    26    1
@<TRIPOS>SUBSTRUCTURE
       1 MOL1            1 RESIDUE      1      MOL     
@<SCITEGIC>MOL_PROPERTY
VM2 Rank
SciTegic.value.IntegerValue
82

@<SCITEGIC>MOL_PROPERTY
Conf_Id
SciTegic.value.IntegerValue
1342

@<SCITEGIC>MOL_PROPERTY
Probability
SciTegic.value.DoubleValue
0.26

@<SCITEGIC>MOL_PROPERTY
Sum Probability
SciTegic.value.DoubleValue
95.01

@<SCITEGIC>MOL_PROPERTY
Delta G
SciTegic.value.DoubleValue
1.947

@<SCITEGIC>MOL_PROPERTY
G
SciTegic.value.DoubleValue
77.413

@<SCITEGIC>MOL_PROPERTY
E
SciTegic.value.DoubleValue
45.186

@<SCITEGIC>MOL_PROPERTY
-TS
SciTegic.value.DoubleValue
32.226

@<SCITEGIC>MOL_PROPERTY
U+W
SciTegic.value.DoubleValue
23.725

@<SCITEGIC>MOL_PROPERTY
U
SciTegic.value.DoubleValue
72.994

@<SCITEGIC>MOL_PROPERTY
W
SciTegic.value.DoubleValue
-49.269

@<SCITEGIC>MOL_PROPERTY
W(PB)
SciTegic.value.DoubleValue
-51.555

@<SCITEGIC>MOL_PROPERTY
W(SA)
SciTegic.value.DoubleValue
2.285

@<SCITEGIC>MOL_PROPERTY
Valence
SciTegic.value.DoubleValue
3.858

@<SCITEGIC>MOL_PROPERTY
Coulomb
SciTegic.value.DoubleValue
68.737

@<SCITEGIC>MOL_PROPERTY
VdW
SciTegic.value.DoubleValue
0.399

@<SCITEGIC>MOL_PROPERTY
VdW6
SciTegic.value.DoubleValue
-6.843

@<SCITEGIC>MOL_PROPERTY
VdW12
SciTegic.value.DoubleValue
7.242

@<SCITEGIC>MOL_PROPERTY
Bond
SciTegic.value.DoubleValue
0.196

@<SCITEGIC>MOL_PROPERTY
Angle
SciTegic.value.DoubleValue
0.971

@<SCITEGIC>MOL_PROPERTY
Pdih
SciTegic.value.DoubleValue
2.692

@<SCITEGIC>MOL_PROPERTY
Idih
SciTegic.value.DoubleValue
0.000

@<SCITEGIC>MOL_PROPERTY
Tether
SciTegic.value.DoubleValue
0.000

@<TRIPOS>MOLECULE
guest-s12_vm2.mol2 : vm2 ligand conformer 83
          26          25           1
SMALL
USER_CHARGES
 
@<TRIPOS>ATOM
       1    N1      20.296302   18.469596   25.548802 N.4        1 MOL1        -0.4857
       2    H1      21.228239   18.588939   25.124138 H          1 MOL1         0.3650
       3    H2      19.968029   17.541211   25.240862 H          1 MOL1         0.3650
       4    C1      19.354651   19.548147   25.048964 C.3        1 MOL1         0.0209
       5    H3      19.738615   20.514142   25.386374 H          1 MOL1         0.0967
       6    H4      18.383219   19.382983   25.521871 H          1 MOL1         0.0967
       7    C2      19.181455   19.565046   23.517585 C.3        1 MOL1        -0.1378
       8    H5      18.797371   18.591089   23.188731 H          1 MOL1         0.0993
       9    H6      18.414709   20.308520   23.262609 H          1 MOL1         0.0993
      10    C3      20.496103   19.908068   22.773344 C.3        1 MOL1        -0.1338
      11    H7      21.249971   19.132230   22.957958 H          1 MOL1         0.0993
      12    H8      20.909405   20.837280   23.189643 H          1 MOL1         0.0993
      13    C4      20.308823   20.098754   21.245918 C.3        1 MOL1        -0.1338
      14    H9      19.642422   20.954733   21.071406 H          1 MOL1         0.0993
      15    H10     21.275668   20.376734   20.804125 H          1 MOL1         0.0993
      16    C5      19.748068   18.867123   20.489675 C.3        1 MOL1        -0.1313
      17    H11     19.658051   19.122476   19.424564 H          1 MOL1         0.0993
      18    H12     18.728462   18.643515   20.831049 H          1 MOL1         0.0993
      19    C6      20.631993   17.606463   20.625614 C.3        1 MOL1        -0.2328
      20    H13     21.662880   17.811185   20.308920 H          1 MOL1         0.1004
      21    H14     20.242936   16.794627   19.997592 H          1 MOL1         0.1004
      22    H15     20.655598   17.240926   21.659633 H          1 MOL1         0.1004
      23    C7      20.390606   18.526804   27.067097 C.3        1 MOL1        -0.0781
      24    H16     19.398318   18.367246   27.494688 H          1 MOL1         0.0978
      25    H17     21.071431   17.746048   27.413521 H          1 MOL1         0.0978
      26    H18     20.769558   19.506376   27.366709 H          1 MOL1         0.0978
@<TRIPOS>BOND
    1     1     2    1
    2     1     3    1
    3     1     4    1
    4     4     5    1
    5     4     6    1
    6     4     7    1
    7     7     8    1
    8     7     9    1
    9     7    10    1
   10    10    11    1
   11    10    12    1
   12    10    13    1
   13    13    14    1
   14    13    15    1
   15    13    16    1
   16    16    17    1
   17    16    18    1
   18    16    19    1
   19    19    20    1
   20    19    21    1
   21    19    22    1
   22     1    23    1
   23    23    24    1
   24    23    25    1
   25    23    26    1
@<TRIPOS>SUBSTRUCTURE
       1 MOL1            1 RESIDUE      1      MOL     
@<SCITEGIC>MOL_PROPERTY
VM2 Rank
SciTegic.value.IntegerValue
83

@<SCITEGIC>MOL_PROPERTY
Conf_Id
SciTegic.value.IntegerValue
1237

@<SCITEGIC>MOL_PROPERTY
Probability
SciTegic.value.DoubleValue
0.26

@<SCITEGIC>MOL_PROPERTY
Sum Probability
SciTegic.value.DoubleValue
95.26

@<SCITEGIC>MOL_PROPERTY
Delta G
SciTegic.value.DoubleValue
1.963

@<SCITEGIC>MOL_PROPERTY
G
SciTegic.value.DoubleValue
77.429

@<SCITEGIC>MOL_PROPERTY
E
SciTegic.value.DoubleValue
44.742

@<SCITEGIC>MOL_PROPERTY
-TS
SciTegic.value.DoubleValue
32.687

@<SCITEGIC>MOL_PROPERTY
U+W
SciTegic.value.DoubleValue
23.281

@<SCITEGIC>MOL_PROPERTY
U
SciTegic.value.DoubleValue
72.710

@<SCITEGIC>MOL_PROPERTY
W
SciTegic.value.DoubleValue
-49.429

@<SCITEGIC>MOL_PROPERTY
W(PB)
SciTegic.value.DoubleValue
-51.678

@<SCITEGIC>MOL_PROPERTY
W(SA)
SciTegic.value.DoubleValue
2.249

@<SCITEGIC>MOL_PROPERTY
Valence
SciTegic.value.DoubleValue
2.790

@<SCITEGIC>MOL_PROPERTY
Coulomb
SciTegic.value.DoubleValue
69.680

@<SCITEGIC>MOL_PROPERTY
VdW
SciTegic.value.DoubleValue
0.240

@<SCITEGIC>MOL_PROPERTY
VdW6
SciTegic.value.DoubleValue
-7.473

@<SCITEGIC>MOL_PROPERTY
VdW12
SciTegic.value.DoubleValue
7.714

@<SCITEGIC>MOL_PROPERTY
Bond
SciTegic.value.DoubleValue
0.222

@<SCITEGIC>MOL_PROPERTY
Angle
SciTegic.value.DoubleValue
1.030

@<SCITEGIC>MOL_PROPERTY
Pdih
SciTegic.value.DoubleValue
1.537

@<SCITEGIC>MOL_PROPERTY
Idih
SciTegic.value.DoubleValue
0.000

@<SCITEGIC>MOL_PROPERTY
Tether
SciTegic.value.DoubleValue
0.000

@<TRIPOS>MOLECULE
guest-s12_vm2.mol2 : vm2 ligand conformer 84
          26          25           1
SMALL
USER_CHARGES
 
@<TRIPOS>ATOM
       1    N1      20.177718   18.510057   26.002123 N.4        1 MOL1        -0.4857
       2    H1      21.112687   18.271406   25.639516 H          1 MOL1         0.3650
       3    H2      19.987860   17.808708   26.735534 H          1 MOL1         0.3650
       4    C1      19.140059   18.384403   24.897283 C.3        1 MOL1         0.0209
       5    H3      18.170700   18.654674   25.323643 H          1 MOL1         0.0967
       6    H4      19.097374   17.331360   24.607666 H          1 MOL1         0.0967
       7    C2      19.405792   19.239994   23.639106 C.3        1 MOL1        -0.1378
       8    H5      18.564957   19.092962   22.950071 H          1 MOL1         0.0993
       9    H6      19.406300   20.304721   23.905323 H          1 MOL1         0.0993
      10    C3      20.733083   18.869273   22.931128 C.3        1 MOL1        -0.1338
      11    H7      20.720077   17.807965   22.649533 H          1 MOL1         0.0993
      12    H8      21.566028   18.984936   23.637006 H          1 MOL1         0.0993
      13    C4      21.037391   19.743689   21.686868 C.3        1 MOL1        -0.1338
      14    H9      21.152422   20.789175   22.004611 H          1 MOL1         0.0993
      15    H10     22.012825   19.445818   21.278174 H          1 MOL1         0.0993
      16    C5      19.981107   19.679580   20.553869 C.3        1 MOL1        -0.1313
      17    H11     20.310175   20.331648   19.732716 H          1 MOL1         0.0993
      18    H12     19.025545   20.095155   20.900487 H          1 MOL1         0.0993
      19    C6      19.759834   18.254311   19.998352 C.3        1 MOL1        -0.2328
      20    H13     20.705953   17.810114   19.662976 H          1 MOL1         0.1004
      21    H14     19.076981   18.278118   19.139287 H          1 MOL1         0.1004
      22    H15     19.317276   17.592506   20.753175 H          1 MOL1         0.1004
      23    C7      20.173016   19.908693   26.608270 C.3        1 MOL1        -0.0781
      24    H16     20.903895   19.949267   27.418953 H          1 MOL1         0.0978
      25    H17     20.437709   20.636549   25.838645 H          1 MOL1         0.0978
      26    H18     19.176684   20.127052   26.998683 H          1 MOL1         0.0978
@<TRIPOS>BOND
    1     1     2    1
    2     1     3    1
    3     1     4    1
    4     4     5    1
    5     4     6    1
    6     4     7    1
    7     7     8    1
    8     7     9    1
    9     7    10    1
   10    10    11    1
   11    10    12    1
   12    10    13    1
   13    13    14    1
   14    13    15    1
   15    13    16    1
   16    16    17    1
   17    16    18    1
   18    16    19    1
   19    19    20    1
   20    19    21    1
   21    19    22    1
   22     1    23    1
   23    23    24    1
   24    23    25    1
   25    23    26    1
@<TRIPOS>SUBSTRUCTURE
       1 MOL1            1 RESIDUE      1      MOL     
@<SCITEGIC>MOL_PROPERTY
VM2 Rank
SciTegic.value.IntegerValue
84

@<SCITEGIC>MOL_PROPERTY
Conf_Id
SciTegic.value.IntegerValue
535

@<SCITEGIC>MOL_PROPERTY
Probability
SciTegic.value.DoubleValue
0.25

@<SCITEGIC>MOL_PROPERTY
Sum Probability
SciTegic.value.DoubleValue
95.51

@<SCITEGIC>MOL_PROPERTY
Delta G
SciTegic.value.DoubleValue
1.982

@<SCITEGIC>MOL_PROPERTY
G
SciTegic.value.DoubleValue
77.448

@<SCITEGIC>MOL_PROPERTY
E
SciTegic.value.DoubleValue
44.560

@<SCITEGIC>MOL_PROPERTY
-TS
SciTegic.value.DoubleValue
32.888

@<SCITEGIC>MOL_PROPERTY
U+W
SciTegic.value.DoubleValue
23.098

@<SCITEGIC>MOL_PROPERTY
U
SciTegic.value.DoubleValue
72.739

@<SCITEGIC>MOL_PROPERTY
W
SciTegic.value.DoubleValue
-49.641

@<SCITEGIC>MOL_PROPERTY
W(PB)
SciTegic.value.DoubleValue
-51.847

@<SCITEGIC>MOL_PROPERTY
W(SA)
SciTegic.value.DoubleValue
2.206

@<SCITEGIC>MOL_PROPERTY
Valence
SciTegic.value.DoubleValue
3.076

@<SCITEGIC>MOL_PROPERTY
Coulomb
SciTegic.value.DoubleValue
69.128

@<SCITEGIC>MOL_PROPERTY
VdW
SciTegic.value.DoubleValue
0.535

@<SCITEGIC>MOL_PROPERTY
VdW6
SciTegic.value.DoubleValue
-8.276

@<SCITEGIC>MOL_PROPERTY
VdW12
SciTegic.value.DoubleValue
8.810

@<SCITEGIC>MOL_PROPERTY
Bond
SciTegic.value.DoubleValue
0.270

@<SCITEGIC>MOL_PROPERTY
Angle
SciTegic.value.DoubleValue
1.277

@<SCITEGIC>MOL_PROPERTY
Pdih
SciTegic.value.DoubleValue
1.529

@<SCITEGIC>MOL_PROPERTY
Idih
SciTegic.value.DoubleValue
0.000

@<SCITEGIC>MOL_PROPERTY
Tether
SciTegic.value.DoubleValue
0.000

@<TRIPOS>MOLECULE
guest-s12_vm2.mol2 : vm2 ligand conformer 85
          26          25           1
SMALL
USER_CHARGES
 
@<TRIPOS>ATOM
       1    N1      19.850964   18.476671   25.990545 N.4        1 MOL1        -0.4857
       2    H1      20.126602   17.822852   26.740462 H          1 MOL1         0.3650
       3    H2      19.011116   18.056863   25.565075 H          1 MOL1         0.3650
       4    C1      20.967402   18.570860   24.962009 C.3        1 MOL1         0.0209
       5    H3      21.241827   17.550184   24.683598 H          1 MOL1         0.0967
       6    H4      21.830018   19.028066   25.453275 H          1 MOL1         0.0967
       7    C2      20.623312   19.364261   23.682253 C.3        1 MOL1        -0.1378
       8    H5      20.389442   20.405073   23.940184 H          1 MOL1         0.0993
       9    H6      21.522662   19.394768   23.054854 H          1 MOL1         0.0993
      10    C3      19.450958   18.738549   22.885733 C.3        1 MOL1        -0.1338
      11    H7      18.564444   18.678859   23.530691 H          1 MOL1         0.0993
      12    H8      19.697396   17.703695   22.613373 H          1 MOL1         0.0993
      13    C4      19.064502   19.542450   21.616958 C.3        1 MOL1        -0.1338
      14    H9      18.200261   19.056897   21.143085 H          1 MOL1         0.0993
      15    H10     18.719023   20.540972   21.918340 H          1 MOL1         0.0993
      16    C5      20.188746   19.700727   20.561230 C.3        1 MOL1        -0.1313
      17    H11     21.014209   20.297953   20.970955 H          1 MOL1         0.0993
      18    H12     19.793316   20.278895   19.714396 H          1 MOL1         0.0993
      19    C6      20.731214   18.353348   20.032786 C.3        1 MOL1        -0.2328
      20    H13     21.244161   17.789013   20.821462 H          1 MOL1         0.1004
      21    H14     21.453686   18.520482   19.223496 H          1 MOL1         0.1004
      22    H15     19.919955   17.729901   19.635169 H          1 MOL1         0.1004
      23    C7      19.530901   19.843133   26.585487 C.3        1 MOL1        -0.0781
      24    H16     19.179300   20.508053   25.794022 H          1 MOL1         0.0978
      25    H17     18.751964   19.729622   27.342724 H          1 MOL1         0.0978
      26    H18     20.432856   20.255271   27.043086 H          1 MOL1         0.0978
@<TRIPOS>BOND
    1     1     2    1
    2     1     3    1
    3     1     4    1
    4     4     5    1
    5     4     6    1
    6     4     7    1
    7     7     8    1
    8     7     9    1
    9     7    10    1
   10    10    11    1
   11    10    12    1
   12    10    13    1
   13    13    14    1
   14    13    15    1
   15    13    16    1
   16    16    17    1
   17    16    18    1
   18    16    19    1
   19    19    20    1
   20    19    21    1
   21    19    22    1
   22     1    23    1
   23    23    24    1
   24    23    25    1
   25    23    26    1
@<TRIPOS>SUBSTRUCTURE
       1 MOL1            1 RESIDUE      1      MOL     
@<SCITEGIC>MOL_PROPERTY
VM2 Rank
SciTegic.value.IntegerValue
85

@<SCITEGIC>MOL_PROPERTY
Conf_Id
SciTegic.value.IntegerValue
1577

@<SCITEGIC>MOL_PROPERTY
Probability
SciTegic.value.DoubleValue
0.24

@<SCITEGIC>MOL_PROPERTY
Sum Probability
SciTegic.value.DoubleValue
95.75

@<SCITEGIC>MOL_PROPERTY
Delta G
SciTegic.value.DoubleValue
2.002

@<SCITEGIC>MOL_PROPERTY
G
SciTegic.value.DoubleValue
77.468

@<SCITEGIC>MOL_PROPERTY
E
SciTegic.value.DoubleValue
44.580

@<SCITEGIC>MOL_PROPERTY
-TS
SciTegic.value.DoubleValue
32.888

@<SCITEGIC>MOL_PROPERTY
U+W
SciTegic.value.DoubleValue
23.118

@<SCITEGIC>MOL_PROPERTY
U
SciTegic.value.DoubleValue
72.739

@<SCITEGIC>MOL_PROPERTY
W
SciTegic.value.DoubleValue
-49.621

@<SCITEGIC>MOL_PROPERTY
W(PB)
SciTegic.value.DoubleValue
-51.864

@<SCITEGIC>MOL_PROPERTY
W(SA)
SciTegic.value.DoubleValue
2.243

@<SCITEGIC>MOL_PROPERTY
Valence
SciTegic.value.DoubleValue
3.076

@<SCITEGIC>MOL_PROPERTY
Coulomb
SciTegic.value.DoubleValue
69.128

@<SCITEGIC>MOL_PROPERTY
VdW
SciTegic.value.DoubleValue
0.535

@<SCITEGIC>MOL_PROPERTY
VdW6
SciTegic.value.DoubleValue
-8.276

@<SCITEGIC>MOL_PROPERTY
VdW12
SciTegic.value.DoubleValue
8.810

@<SCITEGIC>MOL_PROPERTY
Bond
SciTegic.value.DoubleValue
0.270

@<SCITEGIC>MOL_PROPERTY
Angle
SciTegic.value.DoubleValue
1.277

@<SCITEGIC>MOL_PROPERTY
Pdih
SciTegic.value.DoubleValue
1.529

@<SCITEGIC>MOL_PROPERTY
Idih
SciTegic.value.DoubleValue
0.000

@<SCITEGIC>MOL_PROPERTY
Tether
SciTegic.value.DoubleValue
0.000

@<TRIPOS>MOLECULE
guest-s12_vm2.mol2 : vm2 ligand conformer 86
          26          25           1
SMALL
USER_CHARGES
 
@<TRIPOS>ATOM
       1    N1      20.045121   18.229580   25.499184 N.4        1 MOL1        -0.4857
       2    H1      20.532299   17.371381   25.802226 H          1 MOL1         0.3650
       3    H2      19.223322   17.901694   24.970299 H          1 MOL1         0.3650
       4    C1      20.956574   19.040848   24.592143 C.3        1 MOL1         0.0209
       5    H3      21.350506   18.361516   23.832188 H          1 MOL1         0.0967
       6    H4      21.797229   19.393028   25.195213 H          1 MOL1         0.0967
       7    C2      20.281918   20.241805   23.891930 C.3        1 MOL1        -0.1378
       8    H5      19.959289   20.970152   24.646992 H          1 MOL1         0.0993
       9    H6      21.032508   20.761825   23.283402 H          1 MOL1         0.0993
      10    C3      19.068568   19.854625   23.006188 C.3        1 MOL1        -0.1338
      11    H7      18.682037   20.760763   22.519671 H          1 MOL1         0.0993
      12    H8      18.253938   19.492876   23.647971 H          1 MOL1         0.0993
      13    C4      19.365621   18.785937   21.922305 C.3        1 MOL1        -0.1338
      14    H9      19.665647   17.841474   22.395261 H          1 MOL1         0.0993
      15    H10     18.432485   18.570946   21.383399 H          1 MOL1         0.0993
      16    C5      20.444273   19.222814   20.903051 C.3        1 MOL1        -0.1313
      17    H11     21.405813   19.376015   21.410886 H          1 MOL1         0.0993
      18    H12     20.163205   20.186386   20.455528 H          1 MOL1         0.0993
      19    C6      20.629880   18.174162   19.785640 C.3        1 MOL1        -0.2328
      20    H13     21.399532   18.498716   19.073392 H          1 MOL1         0.1004
      21    H14     19.697141   18.022473   19.226929 H          1 MOL1         0.1004
      22    H15     20.941302   17.206517   20.200193 H          1 MOL1         0.1004
      23    C7      19.616045   19.040229   26.716558 C.3        1 MOL1        -0.0781
      24    H16     19.049537   19.913577   26.387214 H          1 MOL1         0.0978
      25    H17     18.989801   18.416760   27.358521 H          1 MOL1         0.0978
      26    H18     20.504293   19.359713   27.265828 H          1 MOL1         0.0978
@<TRIPOS>BOND
    1     1     2    1
    2     1     3    1
    3     1     4    1
    4     4     5    1
    5     4     6    1
    6     4     7    1
    7     7     8    1
    8     7     9    1
    9     7    10    1
   10    10    11    1
   11    10    12    1
   12    10    13    1
   13    13    14    1
   14    13    15    1
   15    13    16    1
   16    16    17    1
   17    16    18    1
   18    16    19    1
   19    19    20    1
   20    19    21    1
   21    19    22    1
   22     1    23    1
   23    23    24    1
   24    23    25    1
   25    23    26    1
@<TRIPOS>SUBSTRUCTURE
       1 MOL1            1 RESIDUE      1      MOL     
@<SCITEGIC>MOL_PROPERTY
VM2 Rank
SciTegic.value.IntegerValue
86

@<SCITEGIC>MOL_PROPERTY
Conf_Id
SciTegic.value.IntegerValue
558

@<SCITEGIC>MOL_PROPERTY
Probability
SciTegic.value.DoubleValue
0.24

@<SCITEGIC>MOL_PROPERTY
Sum Probability
SciTegic.value.DoubleValue
95.99

@<SCITEGIC>MOL_PROPERTY
Delta G
SciTegic.value.DoubleValue
2.012

@<SCITEGIC>MOL_PROPERTY
G
SciTegic.value.DoubleValue
77.478

@<SCITEGIC>MOL_PROPERTY
E
SciTegic.value.DoubleValue
44.552

@<SCITEGIC>MOL_PROPERTY
-TS
SciTegic.value.DoubleValue
32.926

@<SCITEGIC>MOL_PROPERTY
U+W
SciTegic.value.DoubleValue
23.091

@<SCITEGIC>MOL_PROPERTY
U
SciTegic.value.DoubleValue
72.940

@<SCITEGIC>MOL_PROPERTY
W
SciTegic.value.DoubleValue
-49.849

@<SCITEGIC>MOL_PROPERTY
W(PB)
SciTegic.value.DoubleValue
-52.093

@<SCITEGIC>MOL_PROPERTY
W(SA)
SciTegic.value.DoubleValue
2.244

@<SCITEGIC>MOL_PROPERTY
Valence
SciTegic.value.DoubleValue
2.864

@<SCITEGIC>MOL_PROPERTY
Coulomb
SciTegic.value.DoubleValue
69.815

@<SCITEGIC>MOL_PROPERTY
VdW
SciTegic.value.DoubleValue
0.261

@<SCITEGIC>MOL_PROPERTY
VdW6
SciTegic.value.DoubleValue
-8.512

@<SCITEGIC>MOL_PROPERTY
VdW12
SciTegic.value.DoubleValue
8.774

@<SCITEGIC>MOL_PROPERTY
Bond
SciTegic.value.DoubleValue
0.254

@<SCITEGIC>MOL_PROPERTY
Angle
SciTegic.value.DoubleValue
1.081

@<SCITEGIC>MOL_PROPERTY
Pdih
SciTegic.value.DoubleValue
1.529

@<SCITEGIC>MOL_PROPERTY
Idih
SciTegic.value.DoubleValue
0.000

@<SCITEGIC>MOL_PROPERTY
Tether
SciTegic.value.DoubleValue
0.000

@<TRIPOS>MOLECULE
guest-s12_vm2.mol2 : vm2 ligand conformer 87
          26          25           1
SMALL
USER_CHARGES
 
@<TRIPOS>ATOM
       1    N1      20.073547   18.232497   25.500153 N.4        1 MOL1        -0.4857
       2    H1      20.979801   18.082205   25.032503 H          1 MOL1         0.3650
       3    H2      19.750846   17.291064   25.774467 H          1 MOL1         0.3650
       4    C1      19.082127   18.848241   24.525694 C.3        1 MOL1         0.0209
       5    H3      18.147326   19.017954   25.065850 H          1 MOL1         0.0967
       6    H4      18.888621   18.108559   23.744904 H          1 MOL1         0.0967
       7    C2      19.546129   20.166223   23.865863 C.3        1 MOL1        -0.1378
       8    H5      18.750043   20.527348   23.202578 H          1 MOL1         0.0993
       9    H6      19.660441   20.939437   24.636428 H          1 MOL1         0.0993
      10    C3      20.871786   20.039950   23.070028 C.3        1 MOL1        -0.1338
      11    H7      21.695953   19.846603   23.769839 H          1 MOL1         0.0993
      12    H8      21.099286   21.009188   22.605256 H          1 MOL1         0.0993
      13    C4      20.874604   18.941029   21.975722 C.3        1 MOL1        -0.1338
      14    H9      21.867302   18.924017   21.504929 H          1 MOL1         0.0993
      15    H10     20.740435   17.951927   22.433311 H          1 MOL1         0.0993
      16    C5      19.803626   19.156944   20.880449 C.3        1 MOL1        -0.1313
      17    H11     19.913617   20.160724   20.446773 H          1 MOL1         0.0993
      18    H12     18.797921   19.107909   21.318717 H          1 MOL1         0.0993
      19    C6      19.913525   18.100530   19.760343 C.3        1 MOL1        -0.2328
      20    H13     19.145656   18.267036   18.993758 H          1 MOL1         0.1004
      21    H14     19.777049   17.086831   20.159045 H          1 MOL1         0.1004
      22    H15     20.894331   18.145577   19.269264 H          1 MOL1         0.1004
      23    C7      20.242656   19.104586   26.738749 C.3        1 MOL1        -0.0781
      24    H16     20.641630   20.077145   26.443651 H          1 MOL1         0.0978
      25    H17     19.271775   19.233031   27.222119 H          1 MOL1         0.0978
      26    H18     20.935922   18.616686   27.427477 H          1 MOL1         0.0978
@<TRIPOS>BOND
    1     1     2    1
    2     1     3    1
    3     1     4    1
    4     4     5    1
    5     4     6    1
    6     4     7    1
    7     7     8    1
    8     7     9    1
    9     7    10    1
   10    10    11    1
   11    10    12    1
   12    10    13    1
   13    13    14    1
   14    13    15    1
   15    13    16    1
   16    16    17    1
   17    16    18    1
   18    16    19    1
   19    19    20    1
   20    19    21    1
   21    19    22    1
   22     1    23    1
   23    23    24    1
   24    23    25    1
   25    23    26    1
@<TRIPOS>SUBSTRUCTURE
       1 MOL1            1 RESIDUE      1      MOL     
@<SCITEGIC>MOL_PROPERTY
VM2 Rank
SciTegic.value.IntegerValue
87

@<SCITEGIC>MOL_PROPERTY
Conf_Id
SciTegic.value.IntegerValue
1077

@<SCITEGIC>MOL_PROPERTY
Probability
SciTegic.value.DoubleValue
0.23

@<SCITEGIC>MOL_PROPERTY
Sum Probability
SciTegic.value.DoubleValue
96.22

@<SCITEGIC>MOL_PROPERTY
Delta G
SciTegic.value.DoubleValue
2.021

@<SCITEGIC>MOL_PROPERTY
G
SciTegic.value.DoubleValue
77.487

@<SCITEGIC>MOL_PROPERTY
E
SciTegic.value.DoubleValue
44.561

@<SCITEGIC>MOL_PROPERTY
-TS
SciTegic.value.DoubleValue
32.926

@<SCITEGIC>MOL_PROPERTY
U+W
SciTegic.value.DoubleValue
23.099

@<SCITEGIC>MOL_PROPERTY
U
SciTegic.value.DoubleValue
72.940

@<SCITEGIC>MOL_PROPERTY
W
SciTegic.value.DoubleValue
-49.841

@<SCITEGIC>MOL_PROPERTY
W(PB)
SciTegic.value.DoubleValue
-52.063

@<SCITEGIC>MOL_PROPERTY
W(SA)
SciTegic.value.DoubleValue
2.222

@<SCITEGIC>MOL_PROPERTY
Valence
SciTegic.value.DoubleValue
2.864

@<SCITEGIC>MOL_PROPERTY
Coulomb
SciTegic.value.DoubleValue
69.815

@<SCITEGIC>MOL_PROPERTY
VdW
SciTegic.value.DoubleValue
0.262

@<SCITEGIC>MOL_PROPERTY
VdW6
SciTegic.value.DoubleValue
-8.512

@<SCITEGIC>MOL_PROPERTY
VdW12
SciTegic.value.DoubleValue
8.774

@<SCITEGIC>MOL_PROPERTY
Bond
SciTegic.value.DoubleValue
0.254

@<SCITEGIC>MOL_PROPERTY
Angle
SciTegic.value.DoubleValue
1.081

@<SCITEGIC>MOL_PROPERTY
Pdih
SciTegic.value.DoubleValue
1.529

@<SCITEGIC>MOL_PROPERTY
Idih
SciTegic.value.DoubleValue
0.000

@<SCITEGIC>MOL_PROPERTY
Tether
SciTegic.value.DoubleValue
0.000

@<TRIPOS>MOLECULE
guest-s12_vm2.mol2 : vm2 ligand conformer 88
          26          25           1
SMALL
USER_CHARGES
 
@<TRIPOS>ATOM
       1    N1      19.214481   19.499928   25.538020 N.4        1 MOL1        -0.4857
       2    H1      18.307918   19.399031   26.021451 H          1 MOL1         0.3650
       3    H2      19.028407   20.130842   24.744259 H          1 MOL1         0.3650
       4    C1      19.673947   18.143753   25.026674 C.3        1 MOL1         0.0209
       5    H3      18.837564   17.699907   24.481434 H          1 MOL1         0.0967
       6    H4      19.878010   17.513257   25.895744 H          1 MOL1         0.0967
       7    C2      20.916536   18.175307   24.107855 C.3        1 MOL1        -0.1378
       8    H5      21.785495   18.519069   24.683697 H          1 MOL1         0.0993
       9    H6      21.148521   17.148094   23.797043 H          1 MOL1         0.0993
      10    C3      20.753350   19.064777   22.849471 C.3        1 MOL1        -0.1338
      11    H7      21.699217   19.042975   22.292923 H          1 MOL1         0.0993
      12    H8      20.599647   20.109986   23.149133 H          1 MOL1         0.0993
      13    C4      19.597013   18.607198   21.924143 C.3        1 MOL1        -0.1338
      14    H9      19.770625   17.571987   21.599483 H          1 MOL1         0.0993
      15    H10     18.654781   18.599593   22.487533 H          1 MOL1         0.0993
      16    C5      19.406813   19.512129   20.682515 C.3        1 MOL1        -0.1313
      17    H11     19.219696   20.547079   21.001280 H          1 MOL1         0.0993
      18    H12     18.503589   19.188433   20.146502 H          1 MOL1         0.0993
      19    C6      20.603316   19.477428   19.704340 C.3        1 MOL1        -0.2328
      20    H13     20.831940   18.449021   19.395961 H          1 MOL1         0.1004
      21    H14     21.505350   19.910864   20.153446 H          1 MOL1         0.1004
      22    H15     20.376178   20.055862   18.799495 H          1 MOL1         0.1004
      23    C7      20.242545   20.109480   26.483983 C.3        1 MOL1        -0.0781
      24    H16     21.179282   20.267238   25.945635 H          1 MOL1         0.0978
      25    H17     19.865550   21.065666   26.853578 H          1 MOL1         0.0978
      26    H18     20.406474   19.428796   27.322169 H          1 MOL1         0.0978
@<TRIPOS>BOND
    1     1     2    1
    2     1     3    1
    3     1     4    1
    4     4     5    1
    5     4     6    1
    6     4     7    1
    7     7     8    1
    8     7     9    1
    9     7    10    1
   10    10    11    1
   11    10    12    1
   12    10    13    1
   13    13    14    1
   14    13    15    1
   15    13    16    1
   16    16    17    1
   17    16    18    1
   18    16    19    1
   19    19    20    1
   20    19    21    1
   21    19    22    1
   22     1    23    1
   23    23    24    1
   24    23    25    1
   25    23    26    1
@<TRIPOS>SUBSTRUCTURE
       1 MOL1            1 RESIDUE      1      MOL     
@<SCITEGIC>MOL_PROPERTY
VM2 Rank
SciTegic.value.IntegerValue
88

@<SCITEGIC>MOL_PROPERTY
Conf_Id
SciTegic.value.IntegerValue
960

@<SCITEGIC>MOL_PROPERTY
Probability
SciTegic.value.DoubleValue
0.22

@<SCITEGIC>MOL_PROPERTY
Sum Probability
SciTegic.value.DoubleValue
96.44

@<SCITEGIC>MOL_PROPERTY
Delta G
SciTegic.value.DoubleValue
2.069

@<SCITEGIC>MOL_PROPERTY
G
SciTegic.value.DoubleValue
77.535

@<SCITEGIC>MOL_PROPERTY
E
SciTegic.value.DoubleValue
44.759

@<SCITEGIC>MOL_PROPERTY
-TS
SciTegic.value.DoubleValue
32.776

@<SCITEGIC>MOL_PROPERTY
U+W
SciTegic.value.DoubleValue
23.297

@<SCITEGIC>MOL_PROPERTY
U
SciTegic.value.DoubleValue
73.042

@<SCITEGIC>MOL_PROPERTY
W
SciTegic.value.DoubleValue
-49.745

@<SCITEGIC>MOL_PROPERTY
W(PB)
SciTegic.value.DoubleValue
-52.024

@<SCITEGIC>MOL_PROPERTY
W(SA)
SciTegic.value.DoubleValue
2.279

@<SCITEGIC>MOL_PROPERTY
Valence
SciTegic.value.DoubleValue
2.938

@<SCITEGIC>MOL_PROPERTY
Coulomb
SciTegic.value.DoubleValue
69.625

@<SCITEGIC>MOL_PROPERTY
VdW
SciTegic.value.DoubleValue
0.478

@<SCITEGIC>MOL_PROPERTY
VdW6
SciTegic.value.DoubleValue
-8.182

@<SCITEGIC>MOL_PROPERTY
VdW12
SciTegic.value.DoubleValue
8.660

@<SCITEGIC>MOL_PROPERTY
Bond
SciTegic.value.DoubleValue
0.253

@<SCITEGIC>MOL_PROPERTY
Angle
SciTegic.value.DoubleValue
1.038

@<SCITEGIC>MOL_PROPERTY
Pdih
SciTegic.value.DoubleValue
1.647

@<SCITEGIC>MOL_PROPERTY
Idih
SciTegic.value.DoubleValue
0.000

@<SCITEGIC>MOL_PROPERTY
Tether
SciTegic.value.DoubleValue
0.000

@<TRIPOS>MOLECULE
guest-s12_vm2.mol2 : vm2 ligand conformer 89
          26          25           1
SMALL
USER_CHARGES
 
@<TRIPOS>ATOM
       1    N1      20.625383   19.643054   25.587998 N.4        1 MOL1        -0.4857
       2    H1      20.736260   20.304084   24.804750 H          1 MOL1         0.3650
       3    H2      21.497642   19.722591   26.134424 H          1 MOL1         0.3650
       4    C1      20.484196   18.225948   25.055389 C.3        1 MOL1         0.0209
       5    H3      20.350336   17.561191   25.912496 H          1 MOL1         0.0967
       6    H4      21.428705   17.962728   24.573268 H          1 MOL1         0.0967
       7    C2      19.328025   18.014169   24.051558 C.3        1 MOL1        -0.1378
       8    H5      19.329128   16.963528   23.732590 H          1 MOL1         0.0993
       9    H6      18.369608   18.172585   24.562633 H          1 MOL1         0.0993
      10    C3      19.397278   18.927179   22.801382 C.3        1 MOL1        -0.1338
      11    H7      19.316818   19.979829   23.103606 H          1 MOL1         0.0993
      12    H8      18.516392   18.720033   22.180078 H          1 MOL1         0.0993
      13    C4      20.683851   18.717397   21.962661 C.3        1 MOL1        -0.1338
      14    H9      21.566606   18.894863   22.590765 H          1 MOL1         0.0993
      15    H10     20.744549   17.670746   21.633961 H          1 MOL1         0.0993
      16    C5      20.775301   19.650934   20.731051 C.3        1 MOL1        -0.1313
      17    H11     21.760405   19.518773   20.262000 H          1 MOL1         0.0993
      18    H12     20.728259   20.700079   21.054820 H          1 MOL1         0.0993
      19    C6      19.681657   19.383997   19.671649 C.3        1 MOL1        -0.2328
      20    H13     19.851012   20.002750   18.780927 H          1 MOL1         0.1004
      21    H14     18.681793   19.624441   20.053342 H          1 MOL1         0.1004
      22    H15     19.686166   18.332885   19.355213 H          1 MOL1         0.1004
      23    C7      19.432310   20.027322   26.455311 C.3        1 MOL1        -0.0781
      24    H16     19.349970   19.321690   27.284810 H          1 MOL1         0.0978
      25    H17     19.583056   21.037053   26.843558 H          1 MOL1         0.0978
      26    H18     18.522996   19.997803   25.851609 H          1 MOL1         0.0978
@<TRIPOS>BOND
    1     1     2    1
    2     1     3    1
    3     1     4    1
    4     4     5    1
    5     4     6    1
    6     4     7    1
    7     7     8    1
    8     7     9    1
    9     7    10    1
   10    10    11    1
   11    10    12    1
   12    10    13    1
   13    13    14    1
   14    13    15    1
   15    13    16    1
   16    16    17    1
   17    16    18    1
   18    16    19    1
   19    19    20    1
   20    19    21    1
   21    19    22    1
   22     1    23    1
   23    23    24    1
   24    23    25    1
   25    23    26    1
@<TRIPOS>SUBSTRUCTURE
       1 MOL1            1 RESIDUE      1      MOL     
@<SCITEGIC>MOL_PROPERTY
VM2 Rank
SciTegic.value.IntegerValue
89

@<SCITEGIC>MOL_PROPERTY
Conf_Id
SciTegic.value.IntegerValue
690

@<SCITEGIC>MOL_PROPERTY
Probability
SciTegic.value.DoubleValue
0.21

@<SCITEGIC>MOL_PROPERTY
Sum Probability
SciTegic.value.DoubleValue
96.65

@<SCITEGIC>MOL_PROPERTY
Delta G
SciTegic.value.DoubleValue
2.070

@<SCITEGIC>MOL_PROPERTY
G
SciTegic.value.DoubleValue
77.536

@<SCITEGIC>MOL_PROPERTY
E
SciTegic.value.DoubleValue
44.760

@<SCITEGIC>MOL_PROPERTY
-TS
SciTegic.value.DoubleValue
32.776

@<SCITEGIC>MOL_PROPERTY
U+W
SciTegic.value.DoubleValue
23.298

@<SCITEGIC>MOL_PROPERTY
U
SciTegic.value.DoubleValue
73.042

@<SCITEGIC>MOL_PROPERTY
W
SciTegic.value.DoubleValue
-49.744

@<SCITEGIC>MOL_PROPERTY
W(PB)
SciTegic.value.DoubleValue
-51.966

@<SCITEGIC>MOL_PROPERTY
W(SA)
SciTegic.value.DoubleValue
2.222

@<SCITEGIC>MOL_PROPERTY
Valence
SciTegic.value.DoubleValue
2.938

@<SCITEGIC>MOL_PROPERTY
Coulomb
SciTegic.value.DoubleValue
69.625

@<SCITEGIC>MOL_PROPERTY
VdW
SciTegic.value.DoubleValue
0.478

@<SCITEGIC>MOL_PROPERTY
VdW6
SciTegic.value.DoubleValue
-8.182

@<SCITEGIC>MOL_PROPERTY
VdW12
SciTegic.value.DoubleValue
8.660

@<SCITEGIC>MOL_PROPERTY
Bond
SciTegic.value.DoubleValue
0.253

@<SCITEGIC>MOL_PROPERTY
Angle
SciTegic.value.DoubleValue
1.038

@<SCITEGIC>MOL_PROPERTY
Pdih
SciTegic.value.DoubleValue
1.647

@<SCITEGIC>MOL_PROPERTY
Idih
SciTegic.value.DoubleValue
0.000

@<SCITEGIC>MOL_PROPERTY
Tether
SciTegic.value.DoubleValue
0.000

@<TRIPOS>MOLECULE
guest-s12_vm2.mol2 : vm2 ligand conformer 90
          26          25           1
SMALL
USER_CHARGES
 
@<TRIPOS>ATOM
       1    N1      20.413800   19.004012   26.220718 N.4        1 MOL1        -0.4857
       2    H1      21.321249   18.631272   25.902754 H          1 MOL1         0.3650
       3    H2      20.360251   18.756334   27.221444 H          1 MOL1         0.3650
       4    C1      19.274114   18.328685   25.474676 C.3        1 MOL1         0.0209
       5    H3      18.408097   18.994907   25.496888 H          1 MOL1         0.0967
       6    H4      19.016476   17.430115   26.041179 H          1 MOL1         0.0967
       7    C2      19.588711   17.903567   24.022840 C.3        1 MOL1        -0.1378
       8    H5      20.432239   17.200626   24.023876 H          1 MOL1         0.0993
       9    H6      18.723570   17.346830   23.638943 H          1 MOL1         0.0993
      10    C3      19.892977   19.084945   23.071943 C.3        1 MOL1        -0.1338
      11    H7      20.822270   19.579637   23.382995 H          1 MOL1         0.0993
      12    H8      19.089204   19.830816   23.143314 H          1 MOL1         0.0993
      13    C4      20.038326   18.619990   21.604970 C.3        1 MOL1        -0.1338
      14    H9      20.838076   17.869648   21.534886 H          1 MOL1         0.0993
      15    H10     19.111143   18.126976   21.281327 H          1 MOL1         0.0993
      16    C5      20.352517   19.797850   20.655676 C.3        1 MOL1        -0.1313
      17    H11     21.281077   20.292950   20.972897 H          1 MOL1         0.0993
      18    H12     19.554156   20.550397   20.721099 H          1 MOL1         0.0993
      19    C6      20.496387   19.330290   19.191595 C.3        1 MOL1        -0.2328
      20    H13     20.719267   20.180018   18.533335 H          1 MOL1         0.1004
      21    H14     19.570470   18.861250   18.833995 H          1 MOL1         0.1004
      22    H15     21.310831   18.601494   19.087976 H          1 MOL1         0.1004
      23    C7      20.351168   20.520661   26.074580 C.3        1 MOL1        -0.0781
      24    H16     19.397263   20.878115   26.468415 H          1 MOL1         0.0978
      25    H17     21.172125   20.967411   26.639830 H          1 MOL1         0.0978
      26    H18     20.439646   20.793541   25.022311 H          1 MOL1         0.0978
@<TRIPOS>BOND
    1     1     2    1
    2     1     3    1
    3     1     4    1
    4     4     5    1
    5     4     6    1
    6     4     7    1
    7     7     8    1
    8     7     9    1
    9     7    10    1
   10    10    11    1
   11    10    12    1
   12    10    13    1
   13    13    14    1
   14    13    15    1
   15    13    16    1
   16    16    17    1
   17    16    18    1
   18    16    19    1
   19    19    20    1
   20    19    21    1
   21    19    22    1
   22     1    23    1
   23    23    24    1
   24    23    25    1
   25    23    26    1
@<TRIPOS>SUBSTRUCTURE
       1 MOL1            1 RESIDUE      1      MOL     
@<SCITEGIC>MOL_PROPERTY
VM2 Rank
SciTegic.value.IntegerValue
90

@<SCITEGIC>MOL_PROPERTY
Conf_Id
SciTegic.value.IntegerValue
1320

@<SCITEGIC>MOL_PROPERTY
Probability
SciTegic.value.DoubleValue
0.20

@<SCITEGIC>MOL_PROPERTY
Sum Probability
SciTegic.value.DoubleValue
96.86

@<SCITEGIC>MOL_PROPERTY
Delta G
SciTegic.value.DoubleValue
2.105

@<SCITEGIC>MOL_PROPERTY
G
SciTegic.value.DoubleValue
77.570

@<SCITEGIC>MOL_PROPERTY
E
SciTegic.value.DoubleValue
45.060

@<SCITEGIC>MOL_PROPERTY
-TS
SciTegic.value.DoubleValue
32.510

@<SCITEGIC>MOL_PROPERTY
U+W
SciTegic.value.DoubleValue
23.599

@<SCITEGIC>MOL_PROPERTY
U
SciTegic.value.DoubleValue
72.879

@<SCITEGIC>MOL_PROPERTY
W
SciTegic.value.DoubleValue
-49.281

@<SCITEGIC>MOL_PROPERTY
W(PB)
SciTegic.value.DoubleValue
-51.581

@<SCITEGIC>MOL_PROPERTY
W(SA)
SciTegic.value.DoubleValue
2.300

@<SCITEGIC>MOL_PROPERTY
Valence
SciTegic.value.DoubleValue
3.733

@<SCITEGIC>MOL_PROPERTY
Coulomb
SciTegic.value.DoubleValue
68.869

@<SCITEGIC>MOL_PROPERTY
VdW
SciTegic.value.DoubleValue
0.277

@<SCITEGIC>MOL_PROPERTY
VdW6
SciTegic.value.DoubleValue
-6.946

@<SCITEGIC>MOL_PROPERTY
VdW12
SciTegic.value.DoubleValue
7.223

@<SCITEGIC>MOL_PROPERTY
Bond
SciTegic.value.DoubleValue
0.187

@<SCITEGIC>MOL_PROPERTY
Angle
SciTegic.value.DoubleValue
0.835

@<SCITEGIC>MOL_PROPERTY
Pdih
SciTegic.value.DoubleValue
2.712

@<SCITEGIC>MOL_PROPERTY
Idih
SciTegic.value.DoubleValue
0.000

@<SCITEGIC>MOL_PROPERTY
Tether
SciTegic.value.DoubleValue
0.000

@<TRIPOS>MOLECULE
guest-s12_vm2.mol2 : vm2 ligand conformer 91
          26          25           1
SMALL
USER_CHARGES
 
@<TRIPOS>ATOM
       1    N1      20.726807   18.632512   25.843371 N.4        1 MOL1        -0.4857
       2    H1      21.604508   18.930407   26.298070 H          1 MOL1         0.3650
       3    H2      20.897326   17.659273   25.546805 H          1 MOL1         0.3650
       4    C1      20.457511   19.511502   24.633464 C.3        1 MOL1         0.0209
       5    H3      21.381818   19.551230   24.052107 H          1 MOL1         0.0967
       6    H4      20.238006   20.520335   24.991698 H          1 MOL1         0.0967
       7    C2      19.312850   19.017011   23.723814 C.3        1 MOL1        -0.1378
       8    H5      19.514772   17.987263   23.403101 H          1 MOL1         0.0993
       9    H6      18.378207   18.982552   24.297978 H          1 MOL1         0.0993
      10    C3      19.098932   19.924711   22.486955 C.3        1 MOL1        -0.1338
      11    H7      18.780764   20.919554   22.828107 H          1 MOL1         0.0993
      12    H8      18.260445   19.533271   21.895602 H          1 MOL1         0.0993
      13    C4      20.344439   20.089360   21.574434 C.3        1 MOL1        -0.1338
      14    H9      20.073742   20.731318   20.724838 H          1 MOL1         0.0993
      15    H10     21.126174   20.636221   22.118560 H          1 MOL1         0.0993
      16    C5      20.943130   18.767119   21.030561 C.3        1 MOL1        -0.1313
      17    H11     21.319454   18.151459   21.858473 H          1 MOL1         0.0993
      18    H12     21.819610   19.007690   20.412788 H          1 MOL1         0.0993
      19    C6      19.946244   17.946460   20.181091 C.3        1 MOL1        -0.2328
      20    H13     19.102430   17.588935   20.784144 H          1 MOL1         0.1004
      21    H14     20.441154   17.066377   19.750565 H          1 MOL1         0.1004
      22    H15     19.547145   18.545914   19.352660 H          1 MOL1         0.1004
      23    C7      19.578087   18.701324   26.843309 C.3        1 MOL1        -0.0781
      24    H16     18.667295   18.322913   26.375073 H          1 MOL1         0.0978
      25    H17     19.824908   18.088843   27.713377 H          1 MOL1         0.0978
      26    H18     19.433013   19.738828   27.152121 H          1 MOL1         0.0978
@<TRIPOS>BOND
    1     1     2    1
    2     1     3    1
    3     1     4    1
    4     4     5    1
    5     4     6    1
    6     4     7    1
    7     7     8    1
    8     7     9    1
    9     7    10    1
   10    10    11    1
   11    10    12    1
   12    10    13    1
   13    13    14    1
   14    13    15    1
   15    13    16    1
   16    16    17    1
   17    16    18    1
   18    16    19    1
   19    19    20    1
   20    19    21    1
   21    19    22    1
   22     1    23    1
   23    23    24    1
   24    23    25    1
   25    23    26    1
@<TRIPOS>SUBSTRUCTURE
       1 MOL1            1 RESIDUE      1      MOL     
@<SCITEGIC>MOL_PROPERTY
VM2 Rank
SciTegic.value.IntegerValue
91

@<SCITEGIC>MOL_PROPERTY
Conf_Id
SciTegic.value.IntegerValue
222

@<SCITEGIC>MOL_PROPERTY
Probability
SciTegic.value.DoubleValue
0.19

@<SCITEGIC>MOL_PROPERTY
Sum Probability
SciTegic.value.DoubleValue
97.05

@<SCITEGIC>MOL_PROPERTY
Delta G
SciTegic.value.DoubleValue
2.144

@<SCITEGIC>MOL_PROPERTY
G
SciTegic.value.DoubleValue
77.610

@<SCITEGIC>MOL_PROPERTY
E
SciTegic.value.DoubleValue
44.605

@<SCITEGIC>MOL_PROPERTY
-TS
SciTegic.value.DoubleValue
33.005

@<SCITEGIC>MOL_PROPERTY
U+W
SciTegic.value.DoubleValue
23.143

@<SCITEGIC>MOL_PROPERTY
U
SciTegic.value.DoubleValue
72.963

@<SCITEGIC>MOL_PROPERTY
W
SciTegic.value.DoubleValue
-49.820

@<SCITEGIC>MOL_PROPERTY
W(PB)
SciTegic.value.DoubleValue
-52.038

@<SCITEGIC>MOL_PROPERTY
W(SA)
SciTegic.value.DoubleValue
2.218

@<SCITEGIC>MOL_PROPERTY
Valence
SciTegic.value.DoubleValue
3.204

@<SCITEGIC>MOL_PROPERTY
Coulomb
SciTegic.value.DoubleValue
69.346

@<SCITEGIC>MOL_PROPERTY
VdW
SciTegic.value.DoubleValue
0.413

@<SCITEGIC>MOL_PROPERTY
VdW6
SciTegic.value.DoubleValue
-8.434

@<SCITEGIC>MOL_PROPERTY
VdW12
SciTegic.value.DoubleValue
8.848

@<SCITEGIC>MOL_PROPERTY
Bond
SciTegic.value.DoubleValue
0.271

@<SCITEGIC>MOL_PROPERTY
Angle
SciTegic.value.DoubleValue
1.306

@<SCITEGIC>MOL_PROPERTY
Pdih
SciTegic.value.DoubleValue
1.627

@<SCITEGIC>MOL_PROPERTY
Idih
SciTegic.value.DoubleValue
0.000

@<SCITEGIC>MOL_PROPERTY
Tether
SciTegic.value.DoubleValue
0.000

@<TRIPOS>MOLECULE
guest-s12_vm2.mol2 : vm2 ligand conformer 92
          26          25           1
SMALL
USER_CHARGES
 
@<TRIPOS>ATOM
       1    N1      19.302324   18.485602   25.792886 N.4        1 MOL1        -0.4857
       2    H1      19.354842   17.500221   25.492075 H          1 MOL1         0.3650
       3    H2      18.352745   18.595098   26.182965 H          1 MOL1         0.3650
       4    C1      19.470778   19.409813   24.598535 C.3        1 MOL1         0.0209
       5    H3      19.454423   20.439573   24.964030 H          1 MOL1         0.0967
       6    H4      18.600771   19.264531   23.953649 H          1 MOL1         0.0967
       7    C2      20.752991   19.165673   23.774788 C.3        1 MOL1        -0.1378
       8    H5      21.632518   19.318382   24.413164 H          1 MOL1         0.0993
       9    H6      20.788231   18.118724   23.448190 H          1 MOL1         0.0993
      10    C3      20.863315   20.106811   22.549396 C.3        1 MOL1        -0.1338
      11    H7      21.803293   19.898874   22.021014 H          1 MOL1         0.0993
      12    H8      20.947230   21.143148   22.904772 H          1 MOL1         0.0993
      13    C4      19.677380   20.020559   21.550791 C.3        1 MOL1        -0.1338
      14    H9      18.764446   20.392632   22.034890 H          1 MOL1         0.0993
      15    H10     19.870275   20.710277   20.717556 H          1 MOL1         0.0993
      16    C5      19.400418   18.607940   20.976027 C.3        1 MOL1        -0.1313
      17    H11     18.538726   18.669144   20.296707 H          1 MOL1         0.0993
      18    H12     19.100534   17.922588   21.780053 H          1 MOL1         0.0993
      19    C6      20.600640   18.013867   20.204399 C.3        1 MOL1        -0.2328
      20    H13     20.926051   18.687960   19.401512 H          1 MOL1         0.1004
      21    H14     20.326962   17.054414   19.746814 H          1 MOL1         0.1004
      22    H15     21.455340   17.831691   20.867586 H          1 MOL1         0.1004
      23    C7      20.340155   18.779735   26.870178 C.3        1 MOL1        -0.0781
      24    H16     20.248907   19.822784   27.180897 H          1 MOL1         0.0978
      25    H17     20.163044   18.123562   27.725245 H          1 MOL1         0.0978
      26    H18     21.339393   18.598160   26.469507 H          1 MOL1         0.0978
@<TRIPOS>BOND
    1     1     2    1
    2     1     3    1
    3     1     4    1
    4     4     5    1
    5     4     6    1
    6     4     7    1
    7     7     8    1
    8     7     9    1
    9     7    10    1
   10    10    11    1
   11    10    12    1
   12    10    13    1
   13    13    14    1
   14    13    15    1
   15    13    16    1
   16    16    17    1
   17    16    18    1
   18    16    19    1
   19    19    20    1
   20    19    21    1
   21    19    22    1
   22     1    23    1
   23    23    24    1
   24    23    25    1
   25    23    26    1
@<TRIPOS>SUBSTRUCTURE
       1 MOL1            1 RESIDUE      1      MOL     
@<SCITEGIC>MOL_PROPERTY
VM2 Rank
SciTegic.value.IntegerValue
92

@<SCITEGIC>MOL_PROPERTY
Conf_Id
SciTegic.value.IntegerValue
508

@<SCITEGIC>MOL_PROPERTY
Probability
SciTegic.value.DoubleValue
0.18

@<SCITEGIC>MOL_PROPERTY
Sum Probability
SciTegic.value.DoubleValue
97.23

@<SCITEGIC>MOL_PROPERTY
Delta G
SciTegic.value.DoubleValue
2.165

@<SCITEGIC>MOL_PROPERTY
G
SciTegic.value.DoubleValue
77.631

@<SCITEGIC>MOL_PROPERTY
E
SciTegic.value.DoubleValue
44.626

@<SCITEGIC>MOL_PROPERTY
-TS
SciTegic.value.DoubleValue
33.005

@<SCITEGIC>MOL_PROPERTY
U+W
SciTegic.value.DoubleValue
23.164

@<SCITEGIC>MOL_PROPERTY
U
SciTegic.value.DoubleValue
72.964

@<SCITEGIC>MOL_PROPERTY
W
SciTegic.value.DoubleValue
-49.799

@<SCITEGIC>MOL_PROPERTY
W(PB)
SciTegic.value.DoubleValue
-52.050

@<SCITEGIC>MOL_PROPERTY
W(SA)
SciTegic.value.DoubleValue
2.251

@<SCITEGIC>MOL_PROPERTY
Valence
SciTegic.value.DoubleValue
3.204

@<SCITEGIC>MOL_PROPERTY
Coulomb
SciTegic.value.DoubleValue
69.346

@<SCITEGIC>MOL_PROPERTY
VdW
SciTegic.value.DoubleValue
0.414

@<SCITEGIC>MOL_PROPERTY
VdW6
SciTegic.value.DoubleValue
-8.435

@<SCITEGIC>MOL_PROPERTY
VdW12
SciTegic.value.DoubleValue
8.848

@<SCITEGIC>MOL_PROPERTY
Bond
SciTegic.value.DoubleValue
0.271

@<SCITEGIC>MOL_PROPERTY
Angle
SciTegic.value.DoubleValue
1.306

@<SCITEGIC>MOL_PROPERTY
Pdih
SciTegic.value.DoubleValue
1.627

@<SCITEGIC>MOL_PROPERTY
Idih
SciTegic.value.DoubleValue
0.000

@<SCITEGIC>MOL_PROPERTY
Tether
SciTegic.value.DoubleValue
0.000

@<TRIPOS>MOLECULE
guest-s12_vm2.mol2 : vm2 ligand conformer 93
          26          25           1
SMALL
USER_CHARGES
 
@<TRIPOS>ATOM
       1    N1      19.422431   18.317610   25.295195 N.4        1 MOL1        -0.4857
       2    H1      19.362852   17.378253   25.719245 H          1 MOL1         0.3650
       3    H2      18.898243   18.248664   24.410233 H          1 MOL1         0.3650
       4    C1      20.876882   18.658150   25.011406 C.3        1 MOL1         0.0209
       5    H3      21.310325   17.813011   24.471146 H          1 MOL1         0.0967
       6    H4      21.392137   18.741024   25.971662 H          1 MOL1         0.0967
       7    C2      21.100272   19.948899   24.191063 C.3        1 MOL1        -0.1378
       8    H5      20.762052   20.815232   24.774090 H          1 MOL1         0.0993
       9    H6      22.179411   20.087607   24.043452 H          1 MOL1         0.0993
      10    C3      20.391424   19.950065   22.813478 C.3        1 MOL1        -0.1338
      11    H7      20.598059   20.906698   22.314228 H          1 MOL1         0.0993
      12    H8      19.304919   19.911847   22.962561 H          1 MOL1         0.0993
      13    C4      20.847958   18.788489   21.894719 C.3        1 MOL1        -0.1338
      14    H9      21.944289   18.799236   21.822235 H          1 MOL1         0.0993
      15    H10     20.577243   17.822235   22.340622 H          1 MOL1         0.0993
      16    C5      20.259975   18.869603   20.465287 C.3        1 MOL1        -0.1313
      17    H11     20.714553   18.079332   19.851523 H          1 MOL1         0.0993
      18    H12     20.545647   19.822794   19.998781 H          1 MOL1         0.0993
      19    C6      18.722953   18.710163   20.424022 C.3        1 MOL1        -0.2328
      20    H13     18.367525   18.685518   19.385757 H          1 MOL1         0.1004
      21    H14     18.216843   19.544548   20.925040 H          1 MOL1         0.1004
      22    H15     18.409236   17.775979   20.907518 H          1 MOL1         0.1004
      23    C7      18.786105   19.347021   26.221831 C.3        1 MOL1        -0.0781
      24    H16     17.754068   19.053922   26.426793 H          1 MOL1         0.0978
      25    H17     19.350813   19.386186   27.155819 H          1 MOL1         0.0978
      26    H18     18.800908   20.325815   25.738183 H          1 MOL1         0.0978
@<TRIPOS>BOND
    1     1     2    1
    2     1     3    1
    3     1     4    1
    4     4     5    1
    5     4     6    1
    6     4     7    1
    7     7     8    1
    8     7     9    1
    9     7    10    1
   10    10    11    1
   11    10    12    1
   12    10    13    1
   13    13    14    1
   14    13    15    1
   15    13    16    1
   16    16    17    1
   17    16    18    1
   18    16    19    1
   19    19    20    1
   20    19    21    1
   21    19    22    1
   22     1    23    1
   23    23    24    1
   24    23    25    1
   25    23    26    1
@<TRIPOS>SUBSTRUCTURE
       1 MOL1            1 RESIDUE      1      MOL     
@<SCITEGIC>MOL_PROPERTY
VM2 Rank
SciTegic.value.IntegerValue
93

@<SCITEGIC>MOL_PROPERTY
Conf_Id
SciTegic.value.IntegerValue
260

@<SCITEGIC>MOL_PROPERTY
Probability
SciTegic.value.DoubleValue
0.18

@<SCITEGIC>MOL_PROPERTY
Sum Probability
SciTegic.value.DoubleValue
97.41

@<SCITEGIC>MOL_PROPERTY
Delta G
SciTegic.value.DoubleValue
2.171

@<SCITEGIC>MOL_PROPERTY
G
SciTegic.value.DoubleValue
77.637

@<SCITEGIC>MOL_PROPERTY
E
SciTegic.value.DoubleValue
44.830

@<SCITEGIC>MOL_PROPERTY
-TS
SciTegic.value.DoubleValue
32.808

@<SCITEGIC>MOL_PROPERTY
U+W
SciTegic.value.DoubleValue
23.368

@<SCITEGIC>MOL_PROPERTY
U
SciTegic.value.DoubleValue
73.121

@<SCITEGIC>MOL_PROPERTY
W
SciTegic.value.DoubleValue
-49.753

@<SCITEGIC>MOL_PROPERTY
W(PB)
SciTegic.value.DoubleValue
-51.988

@<SCITEGIC>MOL_PROPERTY
W(SA)
SciTegic.value.DoubleValue
2.234

@<SCITEGIC>MOL_PROPERTY
Valence
SciTegic.value.DoubleValue
2.869

@<SCITEGIC>MOL_PROPERTY
Coulomb
SciTegic.value.DoubleValue
69.885

@<SCITEGIC>MOL_PROPERTY
VdW
SciTegic.value.DoubleValue
0.367

@<SCITEGIC>MOL_PROPERTY
VdW6
SciTegic.value.DoubleValue
-8.310

@<SCITEGIC>MOL_PROPERTY
VdW12
SciTegic.value.DoubleValue
8.678

@<SCITEGIC>MOL_PROPERTY
Bond
SciTegic.value.DoubleValue
0.246

@<SCITEGIC>MOL_PROPERTY
Angle
SciTegic.value.DoubleValue
0.961

@<SCITEGIC>MOL_PROPERTY
Pdih
SciTegic.value.DoubleValue
1.661

@<SCITEGIC>MOL_PROPERTY
Idih
SciTegic.value.DoubleValue
0.000

@<SCITEGIC>MOL_PROPERTY
Tether
SciTegic.value.DoubleValue
0.000

@<TRIPOS>MOLECULE
guest-s12_vm2.mol2 : vm2 ligand conformer 94
          26          25           1
SMALL
USER_CHARGES
 
@<TRIPOS>ATOM
       1    N1      20.506529   18.910715   26.197857 N.4        1 MOL1        -0.4857
       2    H1      21.466716   18.576520   26.023399 H          1 MOL1         0.3650
       3    H2      20.325035   18.680671   27.187753 H          1 MOL1         0.3650
       4    C1      19.517082   18.151826   25.323881 C.3        1 MOL1         0.0209
       5    H3      18.516470   18.553100   25.502641 H          1 MOL1         0.0967
       6    H4      19.528137   17.119200   25.682138 H          1 MOL1         0.0967
       7    C2      19.822842   18.133754   23.809097 C.3        1 MOL1        -0.1378
       8    H5      20.907911   18.087789   23.653588 H          1 MOL1         0.0993
       9    H6      19.410692   17.203582   23.396164 H          1 MOL1         0.0993
      10    C3      19.200025   19.326747   23.040024 C.3        1 MOL1        -0.1338
      11    H7      19.658904   20.270948   23.355108 H          1 MOL1         0.0993
      12    H8      18.135132   19.400749   23.300523 H          1 MOL1         0.0993
      13    C4      19.320332   19.196911   21.501511 C.3        1 MOL1        -0.1338
      14    H9      18.837173   18.267278   21.170384 H          1 MOL1         0.0993
      15    H10     18.756904   20.018264   21.037443 H          1 MOL1         0.0993
      16    C5      20.780275   19.237102   20.990717 C.3        1 MOL1        -0.1313
      17    H11     21.343429   18.380208   21.383625 H          1 MOL1         0.0993
      18    H12     21.278806   20.143276   21.362324 H          1 MOL1         0.0993
      19    C6      20.844882   19.213963   19.448562 C.3        1 MOL1        -0.2328
      20    H13     20.380289   18.303645   19.047722 H          1 MOL1         0.1004
      21    H14     21.886707   19.240175   19.103707 H          1 MOL1         0.1004
      22    H15     20.326212   20.080462   19.018046 H          1 MOL1         0.1004
      23    C7      20.416033   20.418982   26.005351 C.3        1 MOL1        -0.0781
      24    H16     20.758327   20.675755   25.001960 H          1 MOL1         0.0978
      25    H17     19.380796   20.738529   26.142963 H          1 MOL1         0.0978
      26    H18     21.054986   20.910286   26.742524 H          1 MOL1         0.0978
@<TRIPOS>BOND
    1     1     2    1
    2     1     3    1
    3     1     4    1
    4     4     5    1
    5     4     6    1
    6     4     7    1
    7     7     8    1
    8     7     9    1
    9     7    10    1
   10    10    11    1
   11    10    12    1
   12    10    13    1
   13    13    14    1
   14    13    15    1
   15    13    16    1
   16    16    17    1
   17    16    18    1
   18    16    19    1
   19    19    20    1
   20    19    21    1
   21    19    22    1
   22     1    23    1
   23    23    24    1
   24    23    25    1
   25    23    26    1
@<TRIPOS>SUBSTRUCTURE
       1 MOL1            1 RESIDUE      1      MOL     
@<SCITEGIC>MOL_PROPERTY
VM2 Rank
SciTegic.value.IntegerValue
94

@<SCITEGIC>MOL_PROPERTY
Conf_Id
SciTegic.value.IntegerValue
764

@<SCITEGIC>MOL_PROPERTY
Probability
SciTegic.value.DoubleValue
0.16

@<SCITEGIC>MOL_PROPERTY
Sum Probability
SciTegic.value.DoubleValue
97.57

@<SCITEGIC>MOL_PROPERTY
Delta G
SciTegic.value.DoubleValue
2.247

@<SCITEGIC>MOL_PROPERTY
G
SciTegic.value.DoubleValue
77.713

@<SCITEGIC>MOL_PROPERTY
E
SciTegic.value.DoubleValue
45.735

@<SCITEGIC>MOL_PROPERTY
-TS
SciTegic.value.DoubleValue
31.978

@<SCITEGIC>MOL_PROPERTY
U+W
SciTegic.value.DoubleValue
24.273

@<SCITEGIC>MOL_PROPERTY
U
SciTegic.value.DoubleValue
73.883

@<SCITEGIC>MOL_PROPERTY
W
SciTegic.value.DoubleValue
-49.610

@<SCITEGIC>MOL_PROPERTY
W(PB)
SciTegic.value.DoubleValue
-51.835

@<SCITEGIC>MOL_PROPERTY
W(SA)
SciTegic.value.DoubleValue
2.225

@<SCITEGIC>MOL_PROPERTY
Valence
SciTegic.value.DoubleValue
4.358

@<SCITEGIC>MOL_PROPERTY
Coulomb
SciTegic.value.DoubleValue
69.048

@<SCITEGIC>MOL_PROPERTY
VdW
SciTegic.value.DoubleValue
0.477

@<SCITEGIC>MOL_PROPERTY
VdW6
SciTegic.value.DoubleValue
-7.513

@<SCITEGIC>MOL_PROPERTY
VdW12
SciTegic.value.DoubleValue
7.990

@<SCITEGIC>MOL_PROPERTY
Bond
SciTegic.value.DoubleValue
0.237

@<SCITEGIC>MOL_PROPERTY
Angle
SciTegic.value.DoubleValue
1.265

@<SCITEGIC>MOL_PROPERTY
Pdih
SciTegic.value.DoubleValue
2.855

@<SCITEGIC>MOL_PROPERTY
Idih
SciTegic.value.DoubleValue
0.000

@<SCITEGIC>MOL_PROPERTY
Tether
SciTegic.value.DoubleValue
0.000

@<TRIPOS>MOLECULE
guest-s12_vm2.mol2 : vm2 ligand conformer 95
          26          25           1
SMALL
USER_CHARGES
 
@<TRIPOS>ATOM
       1    N1      19.434828   18.801661   26.159801 N.4        1 MOL1        -0.4857
       2    H1      19.588906   18.605505   27.161567 H          1 MOL1         0.3650
       3    H2      18.576052   18.282634   25.920650 H          1 MOL1         0.3650
       4    C1      20.615452   18.263509   25.362765 C.3        1 MOL1         0.0209
       5    H3      20.787142   17.247196   25.726660 H          1 MOL1         0.0967
       6    H4      21.499905   18.856467   25.608416 H          1 MOL1         0.0967
       7    C2      20.426547   18.195192   23.830438 C.3        1 MOL1        -0.1378
       8    H5      21.045307   17.369935   23.454024 H          1 MOL1         0.0993
       9    H6      19.386536   17.932999   23.599565 H          1 MOL1         0.0993
      10    C3      20.848976   19.494568   23.098469 C.3        1 MOL1        -0.1338
      11    H7      21.856258   19.779448   23.432472 H          1 MOL1         0.0993
      12    H8      20.188559   20.324853   23.373858 H          1 MOL1         0.0993
      13    C4      20.865432   19.354170   21.556272 C.3        1 MOL1        -0.1338
      14    H9      21.283182   20.275387   21.127002 H          1 MOL1         0.0993
      15    H10     21.547776   18.543163   21.266477 H          1 MOL1         0.0993
      16    C5      19.466738   19.103402   20.944115 C.3        1 MOL1        -0.1313
      17    H11     18.771255   19.888033   21.273408 H          1 MOL1         0.0993
      18    H12     19.061417   18.147921   21.302661 H          1 MOL1         0.0993
      19    C6      19.516356   19.078771   19.401430 C.3        1 MOL1        -0.2328
      20    H13     19.878882   20.034988   19.002173 H          1 MOL1         0.1004
      21    H14     18.517356   18.897231   18.984232 H          1 MOL1         0.1004
      22    H15     20.181583   18.283477   19.040625 H          1 MOL1         0.1004
      23    C7      19.233670   20.298727   25.963710 C.3        1 MOL1        -0.0781
      24    H16     18.918114   20.488881   24.936990 H          1 MOL1         0.0978
      25    H17     18.458834   20.646155   26.650727 H          1 MOL1         0.0978
      26    H18     20.171284   20.818764   26.171562 H          1 MOL1         0.0978
@<TRIPOS>BOND
    1     1     2    1
    2     1     3    1
    3     1     4    1
    4     4     5    1
    5     4     6    1
    6     4     7    1
    7     7     8    1
    8     7     9    1
    9     7    10    1
   10    10    11    1
   11    10    12    1
   12    10    13    1
   13    13    14    1
   14    13    15    1
   15    13    16    1
   16    16    17    1
   17    16    18    1
   18    16    19    1
   19    19    20    1
   20    19    21    1
   21    19    22    1
   22     1    23    1
   23    23    24    1
   24    23    25    1
   25    23    26    1
@<TRIPOS>SUBSTRUCTURE
       1 MOL1            1 RESIDUE      1      MOL     
@<SCITEGIC>MOL_PROPERTY
VM2 Rank
SciTegic.value.IntegerValue
95

@<SCITEGIC>MOL_PROPERTY
Conf_Id
SciTegic.value.IntegerValue
1317

@<SCITEGIC>MOL_PROPERTY
Probability
SciTegic.value.DoubleValue
0.15

@<SCITEGIC>MOL_PROPERTY
Sum Probability
SciTegic.value.DoubleValue
97.72

@<SCITEGIC>MOL_PROPERTY
Delta G
SciTegic.value.DoubleValue
2.274

@<SCITEGIC>MOL_PROPERTY
G
SciTegic.value.DoubleValue
77.740

@<SCITEGIC>MOL_PROPERTY
E
SciTegic.value.DoubleValue
45.763

@<SCITEGIC>MOL_PROPERTY
-TS
SciTegic.value.DoubleValue
31.977

@<SCITEGIC>MOL_PROPERTY
U+W
SciTegic.value.DoubleValue
24.301

@<SCITEGIC>MOL_PROPERTY
U
SciTegic.value.DoubleValue
73.883

@<SCITEGIC>MOL_PROPERTY
W
SciTegic.value.DoubleValue
-49.581

@<SCITEGIC>MOL_PROPERTY
W(PB)
SciTegic.value.DoubleValue
-51.846

@<SCITEGIC>MOL_PROPERTY
W(SA)
SciTegic.value.DoubleValue
2.264

@<SCITEGIC>MOL_PROPERTY
Valence
SciTegic.value.DoubleValue
4.358

@<SCITEGIC>MOL_PROPERTY
Coulomb
SciTegic.value.DoubleValue
69.048

@<SCITEGIC>MOL_PROPERTY
VdW
SciTegic.value.DoubleValue
0.477

@<SCITEGIC>MOL_PROPERTY
VdW6
SciTegic.value.DoubleValue
-7.513

@<SCITEGIC>MOL_PROPERTY
VdW12
SciTegic.value.DoubleValue
7.990

@<SCITEGIC>MOL_PROPERTY
Bond
SciTegic.value.DoubleValue
0.237

@<SCITEGIC>MOL_PROPERTY
Angle
SciTegic.value.DoubleValue
1.266

@<SCITEGIC>MOL_PROPERTY
Pdih
SciTegic.value.DoubleValue
2.855

@<SCITEGIC>MOL_PROPERTY
Idih
SciTegic.value.DoubleValue
0.000

@<SCITEGIC>MOL_PROPERTY
Tether
SciTegic.value.DoubleValue
0.000

@<TRIPOS>MOLECULE
guest-s12_vm2.mol2 : vm2 ligand conformer 96
          26          25           1
SMALL
USER_CHARGES
 
@<TRIPOS>ATOM
       1    N1      19.681120   18.940959   25.672065 N.4        1 MOL1        -0.4857
       2    H1      19.886171   18.047226   26.145070 H          1 MOL1         0.3650
       3    H2      18.775505   18.802275   25.199237 H          1 MOL1         0.3650
       4    C1      20.757127   19.248215   24.649244 C.3        1 MOL1         0.0209
       5    H3      21.700918   19.368833   25.187046 H          1 MOL1         0.0967
       6    H4      20.510274   20.202021   24.176851 H          1 MOL1         0.0967
       7    C2      20.917558   18.159587   23.568544 C.3        1 MOL1        -0.1378
       8    H5      21.759992   18.428509   22.918555 H          1 MOL1         0.0993
       9    H6      21.199929   17.213698   24.049357 H          1 MOL1         0.0993
      10    C3      19.646483   17.936303   22.707674 C.3        1 MOL1        -0.1338
      11    H7      18.854251   17.507220   23.335556 H          1 MOL1         0.0993
      12    H8      19.860107   17.171921   21.948725 H          1 MOL1         0.0993
      13    C4      19.096720   19.212782   22.015322 C.3        1 MOL1        -0.1338
      14    H9      18.211195   18.938396   21.425610 H          1 MOL1         0.0993
      15    H10     18.736544   19.916550   22.777629 H          1 MOL1         0.0993
      16    C5      20.103363   19.946491   21.092930 C.3        1 MOL1        -0.1313
      17    H11     20.953905   20.319527   21.679014 H          1 MOL1         0.0993
      18    H12     19.611797   20.836816   20.676506 H          1 MOL1         0.0993
      19    C6      20.617211   19.071480   19.927098 C.3        1 MOL1        -0.2328
      20    H13     19.783023   18.675609   19.333521 H          1 MOL1         0.1004
      21    H14     21.212285   18.224770   20.291034 H          1 MOL1         0.1004
      22    H15     21.256303   19.660541   19.256724 H          1 MOL1         0.1004
      23    C7      19.588419   20.074182   26.684124 C.3        1 MOL1        -0.0781
      24    H16     20.549336   20.181146   27.192164 H          1 MOL1         0.0978
      25    H17     19.339840   21.001451   26.163278 H          1 MOL1         0.0978
      26    H18     18.809620   19.840378   27.413441 H          1 MOL1         0.0978
@<TRIPOS>BOND
    1     1     2    1
    2     1     3    1
    3     1     4    1
    4     4     5    1
    5     4     6    1
    6     4     7    1
    7     7     8    1
    8     7     9    1
    9     7    10    1
   10    10    11    1
   11    10    12    1
   12    10    13    1
   13    13    14    1
   14    13    15    1
   15    13    16    1
   16    16    17    1
   17    16    18    1
   18    16    19    1
   19    19    20    1
   20    19    21    1
   21    19    22    1
   22     1    23    1
   23    23    24    1
   24    23    25    1
   25    23    26    1
@<TRIPOS>SUBSTRUCTURE
       1 MOL1            1 RESIDUE      1      MOL     
@<SCITEGIC>MOL_PROPERTY
VM2 Rank
SciTegic.value.IntegerValue
96

@<SCITEGIC>MOL_PROPERTY
Conf_Id
SciTegic.value.IntegerValue
188

@<SCITEGIC>MOL_PROPERTY
Probability
SciTegic.value.DoubleValue
0.14

@<SCITEGIC>MOL_PROPERTY
Sum Probability
SciTegic.value.DoubleValue
97.86

@<SCITEGIC>MOL_PROPERTY
Delta G
SciTegic.value.DoubleValue
2.329

@<SCITEGIC>MOL_PROPERTY
G
SciTegic.value.DoubleValue
77.795

@<SCITEGIC>MOL_PROPERTY
E
SciTegic.value.DoubleValue
44.774

@<SCITEGIC>MOL_PROPERTY
-TS
SciTegic.value.DoubleValue
33.021

@<SCITEGIC>MOL_PROPERTY
U+W
SciTegic.value.DoubleValue
23.312

@<SCITEGIC>MOL_PROPERTY
U
SciTegic.value.DoubleValue
72.853

@<SCITEGIC>MOL_PROPERTY
W
SciTegic.value.DoubleValue
-49.541

@<SCITEGIC>MOL_PROPERTY
W(PB)
SciTegic.value.DoubleValue
-51.773

@<SCITEGIC>MOL_PROPERTY
W(SA)
SciTegic.value.DoubleValue
2.233

@<SCITEGIC>MOL_PROPERTY
Valence
SciTegic.value.DoubleValue
3.035

@<SCITEGIC>MOL_PROPERTY
Coulomb
SciTegic.value.DoubleValue
69.793

@<SCITEGIC>MOL_PROPERTY
VdW
SciTegic.value.DoubleValue
0.025

@<SCITEGIC>MOL_PROPERTY
VdW6
SciTegic.value.DoubleValue
-8.576

@<SCITEGIC>MOL_PROPERTY
VdW12
SciTegic.value.DoubleValue
8.601

@<SCITEGIC>MOL_PROPERTY
Bond
SciTegic.value.DoubleValue
0.254

@<SCITEGIC>MOL_PROPERTY
Angle
SciTegic.value.DoubleValue
1.267

@<SCITEGIC>MOL_PROPERTY
Pdih
SciTegic.value.DoubleValue
1.514

@<SCITEGIC>MOL_PROPERTY
Idih
SciTegic.value.DoubleValue
0.000

@<SCITEGIC>MOL_PROPERTY
Tether
SciTegic.value.DoubleValue
0.000

@<TRIPOS>MOLECULE
guest-s12_vm2.mol2 : vm2 ligand conformer 97
          26          25           1
SMALL
USER_CHARGES
 
@<TRIPOS>ATOM
       1    N1      20.272170   19.001056   25.693050 N.4        1 MOL1        -0.4857
       2    H1      21.218056   19.050682   25.285894 H          1 MOL1         0.3650
       3    H2      20.218350   18.080986   26.156852 H          1 MOL1         0.3650
       4    C1      19.230780   19.093005   24.595140 C.3        1 MOL1         0.0209
       5    H3      19.313343   20.080306   24.134425 H          1 MOL1         0.0967
       6    H4      18.246676   19.017592   25.064576 H          1 MOL1         0.0967
       7    C2      19.368644   18.002076   23.513649 C.3        1 MOL1        -0.1378
       8    H5      19.249257   17.015329   23.980229 H          1 MOL1         0.0993
       9    H6      18.536994   18.100735   22.804338 H          1 MOL1         0.0993
      10    C3      20.715778   18.045085   22.745558 C.3        1 MOL1        -0.1338
      11    H7      20.713937   17.258773   21.978988 H          1 MOL1         0.0993
      12    H8      21.532142   17.779635   23.430442 H          1 MOL1         0.0993
      13    C4      21.044723   19.410933   22.084315 C.3        1 MOL1        -0.1338
      14    H9      21.201709   20.167317   22.864934 H          1 MOL1         0.0993
      15    H10     22.006422   19.324439   21.560048 H          1 MOL1         0.0993
      16    C5      19.978220   19.933747   21.088473 C.3        1 MOL1        -0.1313
      17    H11     20.308623   20.907680   20.701159 H          1 MOL1         0.0993
      18    H12     19.031119   20.123930   21.610873 H          1 MOL1         0.0993
      19    C6      19.733783   18.981592   19.895787 C.3        1 MOL1        -0.2328
      20    H13     19.297177   18.029926   20.223183 H          1 MOL1         0.1004
      21    H14     20.670016   18.765832   19.364909 H          1 MOL1         0.1004
      22    H15     19.037813   19.434835   19.178131 H          1 MOL1         0.1004
      23    C7      20.063903   20.122506   26.701029 C.3        1 MOL1        -0.0781
      24    H16     20.156892   21.084521   26.192326 H          1 MOL1         0.0978
      25    H17     19.067871   20.030454   27.139612 H          1 MOL1         0.0978
      26    H18     20.820671   20.044840   27.484842 H          1 MOL1         0.0978
@<TRIPOS>BOND
    1     1     2    1
    2     1     3    1
    3     1     4    1
    4     4     5    1
    5     4     6    1
    6     4     7    1
    7     7     8    1
    8     7     9    1
    9     7    10    1
   10    10    11    1
   11    10    12    1
   12    10    13    1
   13    13    14    1
   14    13    15    1
   15    13    16    1
   16    16    17    1
   17    16    18    1
   18    16    19    1
   19    19    20    1
   20    19    21    1
   21    19    22    1
   22     1    23    1
   23    23    24    1
   24    23    25    1
   25    23    26    1
@<TRIPOS>SUBSTRUCTURE
       1 MOL1            1 RESIDUE      1      MOL     
@<SCITEGIC>MOL_PROPERTY
VM2 Rank
SciTegic.value.IntegerValue
97

@<SCITEGIC>MOL_PROPERTY
Conf_Id
SciTegic.value.IntegerValue
1113

@<SCITEGIC>MOL_PROPERTY
Probability
SciTegic.value.DoubleValue
0.12

@<SCITEGIC>MOL_PROPERTY
Sum Probability
SciTegic.value.DoubleValue
97.98

@<SCITEGIC>MOL_PROPERTY
Delta G
SciTegic.value.DoubleValue
2.420

@<SCITEGIC>MOL_PROPERTY
G
SciTegic.value.DoubleValue
77.886

@<SCITEGIC>MOL_PROPERTY
E
SciTegic.value.DoubleValue
44.865

@<SCITEGIC>MOL_PROPERTY
-TS
SciTegic.value.DoubleValue
33.021

@<SCITEGIC>MOL_PROPERTY
U+W
SciTegic.value.DoubleValue
23.404

@<SCITEGIC>MOL_PROPERTY
U
SciTegic.value.DoubleValue
72.853

@<SCITEGIC>MOL_PROPERTY
W
SciTegic.value.DoubleValue
-49.449

@<SCITEGIC>MOL_PROPERTY
W(PB)
SciTegic.value.DoubleValue
-51.678

@<SCITEGIC>MOL_PROPERTY
W(SA)
SciTegic.value.DoubleValue
2.229

@<SCITEGIC>MOL_PROPERTY
Valence
SciTegic.value.DoubleValue
3.035

@<SCITEGIC>MOL_PROPERTY
Coulomb
SciTegic.value.DoubleValue
69.792

@<SCITEGIC>MOL_PROPERTY
VdW
SciTegic.value.DoubleValue
0.025

@<SCITEGIC>MOL_PROPERTY
VdW6
SciTegic.value.DoubleValue
-8.576

@<SCITEGIC>MOL_PROPERTY
VdW12
SciTegic.value.DoubleValue
8.601

@<SCITEGIC>MOL_PROPERTY
Bond
SciTegic.value.DoubleValue
0.254

@<SCITEGIC>MOL_PROPERTY
Angle
SciTegic.value.DoubleValue
1.267

@<SCITEGIC>MOL_PROPERTY
Pdih
SciTegic.value.DoubleValue
1.514

@<SCITEGIC>MOL_PROPERTY
Idih
SciTegic.value.DoubleValue
0.000

@<SCITEGIC>MOL_PROPERTY
Tether
SciTegic.value.DoubleValue
0.000

@<TRIPOS>MOLECULE
guest-s12_vm2.mol2 : vm2 ligand conformer 98
          26          25           1
SMALL
USER_CHARGES
 
@<TRIPOS>ATOM
       1    N1      20.694712   19.218686   25.640293 N.4        1 MOL1        -0.4857
       2    H1      21.450546   19.752981   26.097346 H          1 MOL1         0.3650
       3    H2      21.158007   18.398019   25.222683 H          1 MOL1         0.3650
       4    C1      20.057680   20.065881   24.550330 C.3        1 MOL1         0.0209
       5    H3      20.865989   20.468358   23.934898 H          1 MOL1         0.0967
       6    H4      19.554389   20.906431   25.034663 H          1 MOL1         0.0967
       7    C2      19.057834   19.317646   23.640358 C.3        1 MOL1        -0.1378
       8    H5      18.201678   18.979972   24.238318 H          1 MOL1         0.0993
       9    H6      18.647066   20.026968   22.910759 H          1 MOL1         0.0993
      10    C3      19.672084   18.102915   22.896726 C.3        1 MOL1        -0.1338
      11    H7      18.901389   17.647650   22.260688 H          1 MOL1         0.0993
      12    H8      19.938078   17.328683   23.628811 H          1 MOL1         0.0993
      13    C4      20.923993   18.429896   22.038394 C.3        1 MOL1        -0.1338
      14    H9      21.747774   18.739666   22.695084 H          1 MOL1         0.0993
      15    H10     21.266350   17.506408   21.551413 H          1 MOL1         0.0993
      16    C5      20.713019   19.517449   20.954328 C.3        1 MOL1        -0.1313
      17    H11     21.663997   19.674489   20.426407 H          1 MOL1         0.0993
      18    H12     20.467736   20.479518   21.423697 H          1 MOL1         0.0993
      19    C6      19.625200   19.149605   19.919827 C.3        1 MOL1        -0.2328
      20    H13     19.575388   19.907998   19.127875 H          1 MOL1         0.1004
      21    H14     18.632566   19.090357   20.383133 H          1 MOL1         0.1004
      22    H15     19.841862   18.183386   19.446130 H          1 MOL1         0.1004
      23    C7      19.663477   18.787922   26.676746 C.3        1 MOL1        -0.0781
      24    H16     19.201412   19.675951   27.113380 H          1 MOL1         0.0978
      25    H17     18.901584   18.172788   26.193778 H          1 MOL1         0.0978
      26    H18     20.161841   18.209531   27.457838 H          1 MOL1         0.0978
@<TRIPOS>BOND
    1     1     2    1
    2     1     3    1
    3     1     4    1
    4     4     5    1
    5     4     6    1
    6     4     7    1
    7     7     8    1
    8     7     9    1
    9     7    10    1
   10    10    11    1
   11    10    12    1
   12    10    13    1
   13    13    14    1
   14    13    15    1
   15    13    16    1
   16    16    17    1
   17    16    18    1
   18    16    19    1
   19    19    20    1
   20    19    21    1
   21    19    22    1
   22     1    23    1
   23    23    24    1
   24    23    25    1
   25    23    26    1
@<TRIPOS>SUBSTRUCTURE
       1 MOL1            1 RESIDUE      1      MOL     
@<SCITEGIC>MOL_PROPERTY
VM2 Rank
SciTegic.value.IntegerValue
98

@<SCITEGIC>MOL_PROPERTY
Conf_Id
SciTegic.value.IntegerValue
818

@<SCITEGIC>MOL_PROPERTY
Probability
SciTegic.value.DoubleValue
0.11

@<SCITEGIC>MOL_PROPERTY
Sum Probability
SciTegic.value.DoubleValue
98.09

@<SCITEGIC>MOL_PROPERTY
Delta G
SciTegic.value.DoubleValue
2.477

@<SCITEGIC>MOL_PROPERTY
G
SciTegic.value.DoubleValue
77.943

@<SCITEGIC>MOL_PROPERTY
E
SciTegic.value.DoubleValue
44.703

@<SCITEGIC>MOL_PROPERTY
-TS
SciTegic.value.DoubleValue
33.241

@<SCITEGIC>MOL_PROPERTY
U+W
SciTegic.value.DoubleValue
23.241

@<SCITEGIC>MOL_PROPERTY
U
SciTegic.value.DoubleValue
73.340

@<SCITEGIC>MOL_PROPERTY
W
SciTegic.value.DoubleValue
-50.099

@<SCITEGIC>MOL_PROPERTY
W(PB)
SciTegic.value.DoubleValue
-52.272

@<SCITEGIC>MOL_PROPERTY
W(SA)
SciTegic.value.DoubleValue
2.172

@<SCITEGIC>MOL_PROPERTY
Valence
SciTegic.value.DoubleValue
3.289

@<SCITEGIC>MOL_PROPERTY
Coulomb
SciTegic.value.DoubleValue
69.804

@<SCITEGIC>MOL_PROPERTY
VdW
SciTegic.value.DoubleValue
0.247

@<SCITEGIC>MOL_PROPERTY
VdW6
SciTegic.value.DoubleValue
-9.372

@<SCITEGIC>MOL_PROPERTY
VdW12
SciTegic.value.DoubleValue
9.619

@<SCITEGIC>MOL_PROPERTY
Bond
SciTegic.value.DoubleValue
0.294

@<SCITEGIC>MOL_PROPERTY
Angle
SciTegic.value.DoubleValue
1.399

@<SCITEGIC>MOL_PROPERTY
Pdih
SciTegic.value.DoubleValue
1.596

@<SCITEGIC>MOL_PROPERTY
Idih
SciTegic.value.DoubleValue
0.000

@<SCITEGIC>MOL_PROPERTY
Tether
SciTegic.value.DoubleValue
0.000

@<TRIPOS>MOLECULE
guest-s12_vm2.mol2 : vm2 ligand conformer 99
          26          25           1
SMALL
USER_CHARGES
 
@<TRIPOS>ATOM
       1    N1      19.943972   19.106012   26.323957 N.4        1 MOL1        -0.4857
       2    H1      20.467233   19.137014   27.213340 H          1 MOL1         0.3650
       3    H2      19.061399   18.625045   26.556190 H          1 MOL1         0.3650
       4    C1      20.735601   18.291261   25.309933 C.3        1 MOL1         0.0209
       5    H3      21.022236   17.368498   25.820959 H          1 MOL1         0.0967
       6    H4      21.652580   18.834003   25.067420 H          1 MOL1         0.0967
       7    C2      19.984417   17.907274   24.015211 C.3        1 MOL1        -0.1378
       8    H5      20.382224   16.944066   23.669111 H          1 MOL1         0.0993
       9    H6      18.921234   17.741215   24.233525 H          1 MOL1         0.0993
      10    C3      20.153276   18.941303   22.875773 C.3        1 MOL1        -0.1338
      11    H7      21.224390   19.096919   22.691647 H          1 MOL1         0.0993
      12    H8      19.739836   19.911202   23.175202 H          1 MOL1         0.0993
      13    C4      19.458335   18.475669   21.573425 C.3        1 MOL1        -0.1338
      14    H9      19.909912   17.535744   21.227108 H          1 MOL1         0.0993
      15    H10     18.404802   18.250654   21.789895 H          1 MOL1         0.0993
      16    C5      19.512609   19.524218   20.435819 C.3        1 MOL1        -0.1313
      17    H11     19.038355   20.458292   20.768081 H          1 MOL1         0.0993
      18    H12     18.912114   19.158979   19.590906 H          1 MOL1         0.0993
      19    C6      20.946192   19.817777   19.937721 C.3        1 MOL1        -0.2328
      20    H13     20.921527   20.494076   19.073467 H          1 MOL1         0.1004
      21    H14     21.453184   18.895067   19.626983 H          1 MOL1         0.1004
      22    H15     21.552808   20.298945   20.714833 H          1 MOL1         0.1004
      23    C7      19.673598   20.526486   25.845161 C.3        1 MOL1        -0.0781
      24    H16     20.617866   20.998076   25.564576 H          1 MOL1         0.0978
      25    H17     19.000082   20.495171   24.987299 H          1 MOL1         0.0978
      26    H18     19.204820   21.091360   26.654011 H          1 MOL1         0.0978
@<TRIPOS>BOND
    1     1     2    1
    2     1     3    1
    3     1     4    1
    4     4     5    1
    5     4     6    1
    6     4     7    1
    7     7     8    1
    8     7     9    1
    9     7    10    1
   10    10    11    1
   11    10    12    1
   12    10    13    1
   13    13    14    1
   14    13    15    1
   15    13    16    1
   16    16    17    1
   17    16    18    1
   18    16    19    1
   19    19    20    1
   20    19    21    1
   21    19    22    1
   22     1    23    1
   23    23    24    1
   24    23    25    1
   25    23    26    1
@<TRIPOS>SUBSTRUCTURE
       1 MOL1            1 RESIDUE      1      MOL     
@<SCITEGIC>MOL_PROPERTY
VM2 Rank
SciTegic.value.IntegerValue
99

@<SCITEGIC>MOL_PROPERTY
Conf_Id
SciTegic.value.IntegerValue
266

@<SCITEGIC>MOL_PROPERTY
Probability
SciTegic.value.DoubleValue
0.11

@<SCITEGIC>MOL_PROPERTY
Sum Probability
SciTegic.value.DoubleValue
98.20

@<SCITEGIC>MOL_PROPERTY
Delta G
SciTegic.value.DoubleValue
2.494

@<SCITEGIC>MOL_PROPERTY
G
SciTegic.value.DoubleValue
77.960

@<SCITEGIC>MOL_PROPERTY
E
SciTegic.value.DoubleValue
45.657

@<SCITEGIC>MOL_PROPERTY
-TS
SciTegic.value.DoubleValue
32.303

@<SCITEGIC>MOL_PROPERTY
U+W
SciTegic.value.DoubleValue
24.196

@<SCITEGIC>MOL_PROPERTY
U
SciTegic.value.DoubleValue
73.665

@<SCITEGIC>MOL_PROPERTY
W
SciTegic.value.DoubleValue
-49.470

@<SCITEGIC>MOL_PROPERTY
W(PB)
SciTegic.value.DoubleValue
-51.730

@<SCITEGIC>MOL_PROPERTY
W(SA)
SciTegic.value.DoubleValue
2.260

@<SCITEGIC>MOL_PROPERTY
Valence
SciTegic.value.DoubleValue
4.363

@<SCITEGIC>MOL_PROPERTY
Coulomb
SciTegic.value.DoubleValue
68.783

@<SCITEGIC>MOL_PROPERTY
VdW
SciTegic.value.DoubleValue
0.520

@<SCITEGIC>MOL_PROPERTY
VdW6
SciTegic.value.DoubleValue
-7.471

@<SCITEGIC>MOL_PROPERTY
VdW12
SciTegic.value.DoubleValue
7.991

@<SCITEGIC>MOL_PROPERTY
Bond
SciTegic.value.DoubleValue
0.232

@<SCITEGIC>MOL_PROPERTY
Angle
SciTegic.value.DoubleValue
1.227

@<SCITEGIC>MOL_PROPERTY
Pdih
SciTegic.value.DoubleValue
2.905

@<SCITEGIC>MOL_PROPERTY
Idih
SciTegic.value.DoubleValue
0.000

@<SCITEGIC>MOL_PROPERTY
Tether
SciTegic.value.DoubleValue
0.000

@<TRIPOS>MOLECULE
guest-s12_vm2.mol2 : vm2 ligand conformer 100
          26          25           1
SMALL
USER_CHARGES
 
@<TRIPOS>ATOM
       1    N1      19.228397   19.067621   25.588357 N.4        1 MOL1        -0.4857
       2    H1      18.972313   18.172859   25.145236 H          1 MOL1         0.3650
       3    H2      18.349499   19.433487   25.987524 H          1 MOL1         0.3650
       4    C1      19.754286   20.034652   24.539615 C.3        1 MOL1         0.0209
       5    H3      20.040782   20.956515   25.051955 H          1 MOL1         0.0967
       6    H4      18.926050   20.268613   23.866270 H          1 MOL1         0.0967
       7    C2      20.946679   19.512247   23.707215 C.3        1 MOL1        -0.1378
       8    H5      21.254423   20.295587   23.003046 H          1 MOL1         0.0993
       9    H6      21.809686   19.351665   24.366014 H          1 MOL1         0.0993
      10    C3      20.646177   18.203283   22.931212 C.3        1 MOL1        -0.1338
      11    H7      20.492839   17.385861   23.648461 H          1 MOL1         0.0993
      12    H8      21.535990   17.919056   22.353949 H          1 MOL1         0.0993
      13    C4      19.417099   18.274692   21.985065 C.3        1 MOL1        -0.1338
      14    H9      19.304850   17.304361   21.482025 H          1 MOL1         0.0993
      15    H10     18.503624   18.405545   22.580258 H          1 MOL1         0.0993
      16    C5      19.477560   19.390161   20.910563 C.3        1 MOL1        -0.1313
      17    H11     19.488313   20.378630   21.388958 H          1 MOL1         0.0993
      18    H12     18.553875   19.354030   20.316238 H          1 MOL1         0.0993
      19    C6      20.687198   19.258975   19.957450 C.3        1 MOL1        -0.2328
      20    H13     21.636165   19.399885   20.489514 H          1 MOL1         0.1004
      21    H14     20.636802   20.017218   19.165392 H          1 MOL1         0.1004
      22    H15     20.705598   18.272268   19.476845 H          1 MOL1         0.1004
      23    C7      20.250605   18.848370   26.697524 C.3        1 MOL1        -0.0781
      24    H16     20.490410   19.808690   27.159073 H          1 MOL1         0.0978
      25    H17     19.827051   18.174942   27.445925 H          1 MOL1         0.0978
      26    H18     21.153706   18.404821   26.273495 H          1 MOL1         0.0978
@<TRIPOS>BOND
    1     1     2    1
    2     1     3    1
    3     1     4    1
    4     4     5    1
    5     4     6    1
    6     4     7    1
    7     7     8    1
    8     7     9    1
    9     7    10    1
   10    10    11    1
   11    10    12    1
   12    10    13    1
   13    13    14    1
   14    13    15    1
   15    13    16    1
   16    16    17    1
   17    16    18    1
   18    16    19    1
   19    19    20    1
   20    19    21    1
   21    19    22    1
   22     1    23    1
   23    23    24    1
   24    23    25    1
   25    23    26    1
@<TRIPOS>SUBSTRUCTURE
       1 MOL1            1 RESIDUE      1      MOL     
@<SCITEGIC>MOL_PROPERTY
VM2 Rank
SciTegic.value.IntegerValue
100

@<SCITEGIC>MOL_PROPERTY
Conf_Id
SciTegic.value.IntegerValue
207

@<SCITEGIC>MOL_PROPERTY
Probability
SciTegic.value.DoubleValue
0.10

@<SCITEGIC>MOL_PROPERTY
Sum Probability
SciTegic.value.DoubleValue
98.29

@<SCITEGIC>MOL_PROPERTY
Delta G
SciTegic.value.DoubleValue
2.556

@<SCITEGIC>MOL_PROPERTY
G
SciTegic.value.DoubleValue
78.022

@<SCITEGIC>MOL_PROPERTY
E
SciTegic.value.DoubleValue
44.781

@<SCITEGIC>MOL_PROPERTY
-TS
SciTegic.value.DoubleValue
33.241

@<SCITEGIC>MOL_PROPERTY
U+W
SciTegic.value.DoubleValue
23.319

@<SCITEGIC>MOL_PROPERTY
U
SciTegic.value.DoubleValue
73.340

@<SCITEGIC>MOL_PROPERTY
W
SciTegic.value.DoubleValue
-50.021

@<SCITEGIC>MOL_PROPERTY
W(PB)
SciTegic.value.DoubleValue
-52.189

@<SCITEGIC>MOL_PROPERTY
W(SA)
SciTegic.value.DoubleValue
2.168

@<SCITEGIC>MOL_PROPERTY
Valence
SciTegic.value.DoubleValue
3.289

@<SCITEGIC>MOL_PROPERTY
Coulomb
SciTegic.value.DoubleValue
69.804

@<SCITEGIC>MOL_PROPERTY
VdW
SciTegic.value.DoubleValue
0.247

@<SCITEGIC>MOL_PROPERTY
VdW6
SciTegic.value.DoubleValue
-9.372

@<SCITEGIC>MOL_PROPERTY
VdW12
SciTegic.value.DoubleValue
9.619

@<SCITEGIC>MOL_PROPERTY
Bond
SciTegic.value.DoubleValue
0.294

@<SCITEGIC>MOL_PROPERTY
Angle
SciTegic.value.DoubleValue
1.399

@<SCITEGIC>MOL_PROPERTY
Pdih
SciTegic.value.DoubleValue
1.596

@<SCITEGIC>MOL_PROPERTY
Idih
SciTegic.value.DoubleValue
0.000

@<SCITEGIC>MOL_PROPERTY
Tether
SciTegic.value.DoubleValue
0.000

@<TRIPOS>MOLECULE
guest-s12_vm2.mol2 : vm2 ligand conformer 101
          26          25           1
SMALL
USER_CHARGES
 
@<TRIPOS>ATOM
       1    N1      19.747839   19.312324   25.914563 N.4        1 MOL1        -0.4857
       2    H1      20.623582   19.782958   26.188285 H          1 MOL1         0.3650
       3    H2      19.289068   19.066635   26.805984 H          1 MOL1         0.3650
       4    C1      20.052573   18.038840   25.140898 C.3        1 MOL1         0.0209
       5    H3      19.176211   17.780022   24.542166 H          1 MOL1         0.0967
       6    H4      20.189448   17.249184   25.884127 H          1 MOL1         0.0967
       7    C2      21.322219   18.083614   24.258822 C.3        1 MOL1        -0.1378
       8    H5      22.185224   18.337172   24.888440 H          1 MOL1         0.0993
       9    H6      21.513569   17.070948   23.879877 H          1 MOL1         0.0993
      10    C3      21.262008   19.060610   23.058727 C.3        1 MOL1        -0.1338
      11    H7      22.219714   19.011921   22.522331 H          1 MOL1         0.0993
      12    H8      21.174342   20.092648   23.421451 H          1 MOL1         0.0993
      13    C4      20.115103   18.741549   22.069424 C.3        1 MOL1        -0.1338
      14    H9      20.221296   17.709915   21.706475 H          1 MOL1         0.0993
      15    H10     19.146318   18.797494   22.582468 H          1 MOL1         0.0993
      16    C5      20.107856   19.711876   20.867395 C.3        1 MOL1        -0.1313
      17    H11     21.069413   19.654889   20.338138 H          1 MOL1         0.0993
      18    H12     20.004351   20.745715   21.225718 H          1 MOL1         0.0993
      19    C6      18.962059   19.394599   19.882904 C.3        1 MOL1        -0.2328
      20    H13     18.973689   20.093329   19.036355 H          1 MOL1         0.1004
      21    H14     17.984160   19.477978   20.374783 H          1 MOL1         0.1004
      22    H15     19.056992   18.377375   19.481122 H          1 MOL1         0.1004
      23    C7      18.838343   20.246587   25.124267 C.3        1 MOL1        -0.0781
      24    H16     19.332318   20.545805   24.199165 H          1 MOL1         0.0978
      25    H17     17.906347   19.726425   24.892884 H          1 MOL1         0.0978
      26    H18     18.624855   21.131141   25.728441 H          1 MOL1         0.0978
@<TRIPOS>BOND
    1     1     2    1
    2     1     3    1
    3     1     4    1
    4     4     5    1
    5     4     6    1
    6     4     7    1
    7     7     8    1
    8     7     9    1
    9     7    10    1
   10    10    11    1
   11    10    12    1
   12    10    13    1
   13    13    14    1
   14    13    15    1
   15    13    16    1
   16    16    17    1
   17    16    18    1
   18    16    19    1
   19    19    20    1
   20    19    21    1
   21    19    22    1
   22     1    23    1
   23    23    24    1
   24    23    25    1
   25    23    26    1
@<TRIPOS>SUBSTRUCTURE
       1 MOL1            1 RESIDUE      1      MOL     
@<SCITEGIC>MOL_PROPERTY
VM2 Rank
SciTegic.value.IntegerValue
101

@<SCITEGIC>MOL_PROPERTY
Conf_Id
SciTegic.value.IntegerValue
1582

@<SCITEGIC>MOL_PROPERTY
Probability
SciTegic.value.DoubleValue
0.09

@<SCITEGIC>MOL_PROPERTY
Sum Probability
SciTegic.value.DoubleValue
98.38

@<SCITEGIC>MOL_PROPERTY
Delta G
SciTegic.value.DoubleValue
2.618

@<SCITEGIC>MOL_PROPERTY
G
SciTegic.value.DoubleValue
78.084

@<SCITEGIC>MOL_PROPERTY
E
SciTegic.value.DoubleValue
45.148

@<SCITEGIC>MOL_PROPERTY
-TS
SciTegic.value.DoubleValue
32.936

@<SCITEGIC>MOL_PROPERTY
U+W
SciTegic.value.DoubleValue
23.686

@<SCITEGIC>MOL_PROPERTY
U
SciTegic.value.DoubleValue
73.514

@<SCITEGIC>MOL_PROPERTY
W
SciTegic.value.DoubleValue
-49.828

@<SCITEGIC>MOL_PROPERTY
W(PB)
SciTegic.value.DoubleValue
-52.066

@<SCITEGIC>MOL_PROPERTY
W(SA)
SciTegic.value.DoubleValue
2.238

@<SCITEGIC>MOL_PROPERTY
Valence
SciTegic.value.DoubleValue
4.050

@<SCITEGIC>MOL_PROPERTY
Coulomb
SciTegic.value.DoubleValue
69.538

@<SCITEGIC>MOL_PROPERTY
VdW
SciTegic.value.DoubleValue
-0.074

@<SCITEGIC>MOL_PROPERTY
VdW6
SciTegic.value.DoubleValue
-8.211

@<SCITEGIC>MOL_PROPERTY
VdW12
SciTegic.value.DoubleValue
8.137

@<SCITEGIC>MOL_PROPERTY
Bond
SciTegic.value.DoubleValue
0.215

@<SCITEGIC>MOL_PROPERTY
Angle
SciTegic.value.DoubleValue
1.189

@<SCITEGIC>MOL_PROPERTY
Pdih
SciTegic.value.DoubleValue
2.646

@<SCITEGIC>MOL_PROPERTY
Idih
SciTegic.value.DoubleValue
0.000

@<SCITEGIC>MOL_PROPERTY
Tether
SciTegic.value.DoubleValue
0.000

@<TRIPOS>MOLECULE
guest-s12_vm2.mol2 : vm2 ligand conformer 102
          26          25           1
SMALL
USER_CHARGES
 
@<TRIPOS>ATOM
       1    N1      19.604762   19.209383   26.074122 N.4        1 MOL1        -0.4857
       2    H1      19.647126   19.071748   27.096324 H          1 MOL1         0.3650
       3    H2      18.641966   18.950420   25.810613 H          1 MOL1         0.3650
       4    C1      20.604505   18.282623   25.400924 C.3        1 MOL1         0.0209
       5    H3      20.733496   17.423859   26.064711 H          1 MOL1         0.0967
       6    H4      21.564291   18.801556   25.338952 H          1 MOL1         0.0967
       7    C2      20.188802   17.752642   24.010284 C.3        1 MOL1        -0.1378
       8    H5      20.946733   17.028026   23.684264 H          1 MOL1         0.0993
       9    H6      19.247078   17.195174   24.099851 H          1 MOL1         0.0993
      10    C3      20.045501   18.853608   22.933384 C.3        1 MOL1        -0.1338
      11    H7      20.956257   19.466662   22.921804 H          1 MOL1         0.0993
      12    H8      19.209885   19.516692   23.191994 H          1 MOL1         0.0993
      13    C4      19.795268   18.253418   21.528838 C.3        1 MOL1        -0.1338
      14    H9      20.652242   17.633030   21.232151 H          1 MOL1         0.0993
      15    H10     18.928053   17.580214   21.575444 H          1 MOL1         0.0993
      16    C5      19.530214   19.321607   20.440172 C.3        1 MOL1        -0.1313
      17    H11     18.656507   19.927369   20.718553 H          1 MOL1         0.0993
      18    H12     19.264257   18.811890   19.503516 H          1 MOL1         0.0993
      19    C6      20.741063   20.245984   20.177802 C.3        1 MOL1        -0.2328
      20    H13     20.970241   20.868606   21.051434 H          1 MOL1         0.1004
      21    H14     20.533809   20.921194   19.337530 H          1 MOL1         0.1004
      22    H15     21.636242   19.662609   19.926167 H          1 MOL1         0.1004
      23    C7      19.897885   20.670735   25.751474 C.3        1 MOL1        -0.0781
      24    H16     20.906530   20.915891   26.091102 H          1 MOL1         0.0978
      25    H17     19.822855   20.832915   24.675539 H          1 MOL1         0.0978
      26    H18     19.172652   21.302427   26.269224 H          1 MOL1         0.0978
@<TRIPOS>BOND
    1     1     2    1
    2     1     3    1
    3     1     4    1
    4     4     5    1
    5     4     6    1
    6     4     7    1
    7     7     8    1
    8     7     9    1
    9     7    10    1
   10    10    11    1
   11    10    12    1
   12    10    13    1
   13    13    14    1
   14    13    15    1
   15    13    16    1
   16    16    17    1
   17    16    18    1
   18    16    19    1
   19    19    20    1
   20    19    21    1
   21    19    22    1
   22     1    23    1
   23    23    24    1
   24    23    25    1
   25    23    26    1
@<TRIPOS>SUBSTRUCTURE
       1 MOL1            1 RESIDUE      1      MOL     
@<SCITEGIC>MOL_PROPERTY
VM2 Rank
SciTegic.value.IntegerValue
102

@<SCITEGIC>MOL_PROPERTY
Conf_Id
SciTegic.value.IntegerValue
1528

@<SCITEGIC>MOL_PROPERTY
Probability
SciTegic.value.DoubleValue
0.07

@<SCITEGIC>MOL_PROPERTY
Sum Probability
SciTegic.value.DoubleValue
98.45

@<SCITEGIC>MOL_PROPERTY
Delta G
SciTegic.value.DoubleValue
2.735

@<SCITEGIC>MOL_PROPERTY
G
SciTegic.value.DoubleValue
78.201

@<SCITEGIC>MOL_PROPERTY
E
SciTegic.value.DoubleValue
45.573

@<SCITEGIC>MOL_PROPERTY
-TS
SciTegic.value.DoubleValue
32.629

@<SCITEGIC>MOL_PROPERTY
U+W
SciTegic.value.DoubleValue
24.111

@<SCITEGIC>MOL_PROPERTY
U
SciTegic.value.DoubleValue
73.569

@<SCITEGIC>MOL_PROPERTY
W
SciTegic.value.DoubleValue
-49.458

@<SCITEGIC>MOL_PROPERTY
W(PB)
SciTegic.value.DoubleValue
-51.694

@<SCITEGIC>MOL_PROPERTY
W(SA)
SciTegic.value.DoubleValue
2.236

@<SCITEGIC>MOL_PROPERTY
Valence
SciTegic.value.DoubleValue
4.232

@<SCITEGIC>MOL_PROPERTY
Coulomb
SciTegic.value.DoubleValue
68.955

@<SCITEGIC>MOL_PROPERTY
VdW
SciTegic.value.DoubleValue
0.382

@<SCITEGIC>MOL_PROPERTY
VdW6
SciTegic.value.DoubleValue
-7.610

@<SCITEGIC>MOL_PROPERTY
VdW12
SciTegic.value.DoubleValue
7.992

@<SCITEGIC>MOL_PROPERTY
Bond
SciTegic.value.DoubleValue
0.222

@<SCITEGIC>MOL_PROPERTY
Angle
SciTegic.value.DoubleValue
1.074

@<SCITEGIC>MOL_PROPERTY
Pdih
SciTegic.value.DoubleValue
2.936

@<SCITEGIC>MOL_PROPERTY
Idih
SciTegic.value.DoubleValue
0.000

@<SCITEGIC>MOL_PROPERTY
Tether
SciTegic.value.DoubleValue
0.000

@<TRIPOS>MOLECULE
guest-s12_vm2.mol2 : vm2 ligand conformer 103
          26          25           1
SMALL
USER_CHARGES
 
@<TRIPOS>ATOM
       1    N1      19.454696   18.768012   25.958445 N.4        1 MOL1        -0.4857
       2    H1      19.443135   18.596704   26.976365 H          1 MOL1         0.3650
       3    H2      18.991337   17.944751   25.544944 H          1 MOL1         0.3650
       4    C1      20.895314   18.859201   25.481033 C.3        1 MOL1         0.0209
       5    H3      21.495556   18.269420   26.178594 H          1 MOL1         0.0967
       6    H4      21.217900   19.900115   25.563254 H          1 MOL1         0.0967
       7    C2      21.159015   18.325429   24.055141 C.3        1 MOL1        -0.1378
       8    H5      22.241906   18.360551   23.876697 H          1 MOL1         0.0993
       9    H6      20.871851   17.266878   24.003513 H          1 MOL1         0.0993
      10    C3      20.435284   19.118529   22.941672 C.3        1 MOL1        -0.1338
      11    H7      20.655253   20.189459   23.050862 H          1 MOL1         0.0993
      12    H8      19.351604   18.995598   23.056573 H          1 MOL1         0.0993
      13    C4      20.858186   18.644110   21.530330 C.3        1 MOL1        -0.1338
      14    H9      21.951804   18.704914   21.442865 H          1 MOL1         0.0993
      15    H10     20.596582   17.584718   21.401542 H          1 MOL1         0.0993
      16    C5      20.228301   19.474863   20.385899 C.3        1 MOL1        -0.1313
      17    H11     20.659168   19.142518   19.431030 H          1 MOL1         0.0993
      18    H12     20.507341   20.532042   20.496892 H          1 MOL1         0.0993
      19    C6      18.689548   19.348883   20.308196 C.3        1 MOL1        -0.2328
      20    H13     18.382649   18.297927   20.228853 H          1 MOL1         0.1004
      21    H14     18.305100   19.877780   19.426499 H          1 MOL1         0.1004
      22    H15     18.203693   19.783880   21.190285 H          1 MOL1         0.1004
      23    C7      18.687657   20.050973   25.656283 C.3        1 MOL1        -0.0781
      24    H16     18.667764   20.223804   24.579574 H          1 MOL1         0.0978
      25    H17     17.666461   19.952383   26.031123 H          1 MOL1         0.0978
      26    H18     19.182030   20.887982   26.154106 H          1 MOL1         0.0978
@<TRIPOS>BOND
    1     1     2    1
    2     1     3    1
    3     1     4    1
    4     4     5    1
    5     4     6    1
    6     4     7    1
    7     7     8    1
    8     7     9    1
    9     7    10    1
   10    10    11    1
   11    10    12    1
   12    10    13    1
   13    13    14    1
   14    13    15    1
   15    13    16    1
   16    16    17    1
   17    16    18    1
   18    16    19    1
   19    19    20    1
   20    19    21    1
   21    19    22    1
   22     1    23    1
   23    23    24    1
   24    23    25    1
   25    23    26    1
@<TRIPOS>SUBSTRUCTURE
       1 MOL1            1 RESIDUE      1      MOL     
@<SCITEGIC>MOL_PROPERTY
VM2 Rank
SciTegic.value.IntegerValue
103

@<SCITEGIC>MOL_PROPERTY
Conf_Id
SciTegic.value.IntegerValue
1060

@<SCITEGIC>MOL_PROPERTY
Probability
SciTegic.value.DoubleValue
0.07

@<SCITEGIC>MOL_PROPERTY
Sum Probability
SciTegic.value.DoubleValue
98.52

@<SCITEGIC>MOL_PROPERTY
Delta G
SciTegic.value.DoubleValue
2.741

@<SCITEGIC>MOL_PROPERTY
G
SciTegic.value.DoubleValue
78.207

@<SCITEGIC>MOL_PROPERTY
E
SciTegic.value.DoubleValue
45.579

@<SCITEGIC>MOL_PROPERTY
-TS
SciTegic.value.DoubleValue
32.628

@<SCITEGIC>MOL_PROPERTY
U+W
SciTegic.value.DoubleValue
24.117

@<SCITEGIC>MOL_PROPERTY
U
SciTegic.value.DoubleValue
73.676

@<SCITEGIC>MOL_PROPERTY
W
SciTegic.value.DoubleValue
-49.559

@<SCITEGIC>MOL_PROPERTY
W(PB)
SciTegic.value.DoubleValue
-51.786

@<SCITEGIC>MOL_PROPERTY
W(SA)
SciTegic.value.DoubleValue
2.228

@<SCITEGIC>MOL_PROPERTY
Valence
SciTegic.value.DoubleValue
4.236

@<SCITEGIC>MOL_PROPERTY
Coulomb
SciTegic.value.DoubleValue
69.060

@<SCITEGIC>MOL_PROPERTY
VdW
SciTegic.value.DoubleValue
0.380

@<SCITEGIC>MOL_PROPERTY
VdW6
SciTegic.value.DoubleValue
-7.630

@<SCITEGIC>MOL_PROPERTY
VdW12
SciTegic.value.DoubleValue
8.009

@<SCITEGIC>MOL_PROPERTY
Bond
SciTegic.value.DoubleValue
0.224

@<SCITEGIC>MOL_PROPERTY
Angle
SciTegic.value.DoubleValue
1.075

@<SCITEGIC>MOL_PROPERTY
Pdih
SciTegic.value.DoubleValue
2.937

@<SCITEGIC>MOL_PROPERTY
Idih
SciTegic.value.DoubleValue
0.000

@<SCITEGIC>MOL_PROPERTY
Tether
SciTegic.value.DoubleValue
0.000

@<TRIPOS>MOLECULE
guest-s12_vm2.mol2 : vm2 ligand conformer 104
          26          25           1
SMALL
USER_CHARGES
 
@<TRIPOS>ATOM
       1    N1      20.787724   18.626150   25.367950 N.4        1 MOL1        -0.4857
       2    H1      21.525855   18.556498   26.086356 H          1 MOL1         0.3650
       3    H2      21.264065   18.432092   24.475636 H          1 MOL1         0.3650
       4    C1      20.221703   20.036175   25.357830 C.3        1 MOL1         0.0209
       5    H3      21.065988   20.725907   25.280599 H          1 MOL1         0.0967
       6    H4      19.748173   20.198886   26.329296 H          1 MOL1         0.0967
       7    C2      19.203972   20.362919   24.239272 C.3        1 MOL1        -0.1378
       8    H5      18.335124   19.695034   24.299320 H          1 MOL1         0.0993
       9    H6      18.816378   21.369908   24.442797 H          1 MOL1         0.0993
      10    C3      19.795046   20.359994   22.805643 C.3        1 MOL1        -0.1338
      11    H7      20.785674   20.835461   22.809234 H          1 MOL1         0.0993
      12    H8      19.156590   20.992439   22.173228 H          1 MOL1         0.0993
      13    C4      19.875623   18.955663   22.157955 C.3        1 MOL1        -0.1338
      14    H9      20.548775   18.306386   22.727830 H          1 MOL1         0.0993
      15    H10     18.883797   18.483419   22.182319 H          1 MOL1         0.0993
      16    C5      20.371468   19.027177   20.696429 C.3        1 MOL1        -0.1313
      17    H11     21.362044   19.502222   20.663297 H          1 MOL1         0.0993
      18    H12     19.696260   19.661660   20.105234 H          1 MOL1         0.0993
      19    C6      20.453208   17.627368   20.050781 C.3        1 MOL1        -0.2328
      20    H13     19.469661   17.139821   20.039127 H          1 MOL1         0.1004
      21    H14     21.149522   16.979257   20.598736 H          1 MOL1         0.1004
      22    H15     20.805603   17.698933   19.013613 H          1 MOL1         0.1004
      23    C7      19.699256   17.594553   25.641141 C.3        1 MOL1        -0.0781
      24    H16     20.149524   16.599981   25.674209 H          1 MOL1         0.0978
      25    H17     19.226621   17.817549   26.600123 H          1 MOL1         0.0978
      26    H18     18.955547   17.634769   24.842790 H          1 MOL1         0.0978
@<TRIPOS>BOND
    1     1     2    1
    2     1     3    1
    3     1     4    1
    4     4     5    1
    5     4     6    1
    6     4     7    1
    7     7     8    1
    8     7     9    1
    9     7    10    1
   10    10    11    1
   11    10    12    1
   12    10    13    1
   13    13    14    1
   14    13    15    1
   15    13    16    1
   16    16    17    1
   17    16    18    1
   18    16    19    1
   19    19    20    1
   20    19    21    1
   21    19    22    1
   22     1    23    1
   23    23    24    1
   24    23    25    1
   25    23    26    1
@<TRIPOS>SUBSTRUCTURE
       1 MOL1            1 RESIDUE      1      MOL     
@<SCITEGIC>MOL_PROPERTY
VM2 Rank
SciTegic.value.IntegerValue
104

@<SCITEGIC>MOL_PROPERTY
Conf_Id
SciTegic.value.IntegerValue
1302

@<SCITEGIC>MOL_PROPERTY
Probability
SciTegic.value.DoubleValue
0.06

@<SCITEGIC>MOL_PROPERTY
Sum Probability
SciTegic.value.DoubleValue
98.58

@<SCITEGIC>MOL_PROPERTY
Delta G
SciTegic.value.DoubleValue
2.812

@<SCITEGIC>MOL_PROPERTY
G
SciTegic.value.DoubleValue
78.278

@<SCITEGIC>MOL_PROPERTY
E
SciTegic.value.DoubleValue
45.919

@<SCITEGIC>MOL_PROPERTY
-TS
SciTegic.value.DoubleValue
32.359

@<SCITEGIC>MOL_PROPERTY
U+W
SciTegic.value.DoubleValue
24.457

@<SCITEGIC>MOL_PROPERTY
U
SciTegic.value.DoubleValue
74.362

@<SCITEGIC>MOL_PROPERTY
W
SciTegic.value.DoubleValue
-49.905

@<SCITEGIC>MOL_PROPERTY
W(PB)
SciTegic.value.DoubleValue
-52.142

@<SCITEGIC>MOL_PROPERTY
W(SA)
SciTegic.value.DoubleValue
2.237

@<SCITEGIC>MOL_PROPERTY
Valence
SciTegic.value.DoubleValue
3.851

@<SCITEGIC>MOL_PROPERTY
Coulomb
SciTegic.value.DoubleValue
70.384

@<SCITEGIC>MOL_PROPERTY
VdW
SciTegic.value.DoubleValue
0.128

@<SCITEGIC>MOL_PROPERTY
VdW6
SciTegic.value.DoubleValue
-7.956

@<SCITEGIC>MOL_PROPERTY
VdW12
SciTegic.value.DoubleValue
8.084

@<SCITEGIC>MOL_PROPERTY
Bond
SciTegic.value.DoubleValue
0.231

@<SCITEGIC>MOL_PROPERTY
Angle
SciTegic.value.DoubleValue
1.282

@<SCITEGIC>MOL_PROPERTY
Pdih
SciTegic.value.DoubleValue
2.337

@<SCITEGIC>MOL_PROPERTY
Idih
SciTegic.value.DoubleValue
0.000

@<SCITEGIC>MOL_PROPERTY
Tether
SciTegic.value.DoubleValue
0.000

@<TRIPOS>MOLECULE
guest-s12_vm2.mol2 : vm2 ligand conformer 105
          26          25           1
SMALL
USER_CHARGES
 
@<TRIPOS>ATOM
       1    N1      19.971477   18.688646   26.234571 N.4        1 MOL1        -0.4857
       2    H1      20.633834   17.933743   26.000339 H          1 MOL1         0.3650
       3    H2      19.524104   18.387010   27.114642 H          1 MOL1         0.3650
       4    C1      18.913182   18.818222   25.150947 C.3        1 MOL1         0.0209
       5    H3      18.532669   19.842601   25.164789 H          1 MOL1         0.0967
       6    H4      18.091417   18.155066   25.433162 H          1 MOL1         0.0967
       7    C2      19.369167   18.433369   23.725612 C.3        1 MOL1        -0.1378
       8    H5      19.701898   17.387071   23.720642 H          1 MOL1         0.0993
       9    H6      18.487585   18.480722   23.075213 H          1 MOL1         0.0993
      10    C3      20.488402   19.341053   23.156807 C.3        1 MOL1        -0.1338
      11    H7      21.381722   19.246701   23.787337 H          1 MOL1         0.0993
      12    H8      20.177673   20.393678   23.208600 H          1 MOL1         0.0993
      13    C4      20.895050   18.989250   21.704133 C.3        1 MOL1        -0.1338
      14    H9      21.789706   19.571967   21.444350 H          1 MOL1         0.0993
      15    H10     21.190382   17.932339   21.649047 H          1 MOL1         0.0993
      16    C5      19.790433   19.279316   20.659872 C.3        1 MOL1        -0.1313
      17    H11     19.457152   20.322489   20.751961 H          1 MOL1         0.0993
      18    H12     18.912795   18.647022   20.847390 H          1 MOL1         0.0993
      19    C6      20.288120   19.027407   19.220444 C.3        1 MOL1        -0.2328
      20    H13     20.601379   17.983574   19.088213 H          1 MOL1         0.1004
      21    H14     21.141793   19.673784   18.978313 H          1 MOL1         0.1004
      22    H15     19.492422   19.234856   18.493222 H          1 MOL1         0.1004
      23    C7      20.692168   20.012736   26.464613 C.3        1 MOL1        -0.0781
      24    H16     21.189581   20.326015   25.545816 H          1 MOL1         0.0978
      25    H17     19.962897   20.768644   26.763922 H          1 MOL1         0.0978
      26    H18     21.432420   19.882820   27.257210 H          1 MOL1         0.0978
@<TRIPOS>BOND
    1     1     2    1
    2     1     3    1
    3     1     4    1
    4     4     5    1
    5     4     6    1
    6     4     7    1
    7     7     8    1
    8     7     9    1
    9     7    10    1
   10    10    11    1
   11    10    12    1
   12    10    13    1
   13    13    14    1
   14    13    15    1
   15    13    16    1
   16    16    17    1
   17    16    18    1
   18    16    19    1
   19    19    20    1
   20    19    21    1
   21    19    22    1
   22     1    23    1
   23    23    24    1
   24    23    25    1
   25    23    26    1
@<TRIPOS>SUBSTRUCTURE
       1 MOL1            1 RESIDUE      1      MOL     
@<SCITEGIC>MOL_PROPERTY
VM2 Rank
SciTegic.value.IntegerValue
105

@<SCITEGIC>MOL_PROPERTY
Conf_Id
SciTegic.value.IntegerValue
549

@<SCITEGIC>MOL_PROPERTY
Probability
SciTegic.value.DoubleValue
0.06

@<SCITEGIC>MOL_PROPERTY
Sum Probability
SciTegic.value.DoubleValue
98.64

@<SCITEGIC>MOL_PROPERTY
Delta G
SciTegic.value.DoubleValue
2.829

@<SCITEGIC>MOL_PROPERTY
G
SciTegic.value.DoubleValue
78.295

@<SCITEGIC>MOL_PROPERTY
E
SciTegic.value.DoubleValue
45.749

@<SCITEGIC>MOL_PROPERTY
-TS
SciTegic.value.DoubleValue
32.545

@<SCITEGIC>MOL_PROPERTY
U+W
SciTegic.value.DoubleValue
24.287

@<SCITEGIC>MOL_PROPERTY
U
SciTegic.value.DoubleValue
73.757

@<SCITEGIC>MOL_PROPERTY
W
SciTegic.value.DoubleValue
-49.470

@<SCITEGIC>MOL_PROPERTY
W(PB)
SciTegic.value.DoubleValue
-51.700

@<SCITEGIC>MOL_PROPERTY
W(SA)
SciTegic.value.DoubleValue
2.230

@<SCITEGIC>MOL_PROPERTY
Valence
SciTegic.value.DoubleValue
4.423

@<SCITEGIC>MOL_PROPERTY
Coulomb
SciTegic.value.DoubleValue
68.887

@<SCITEGIC>MOL_PROPERTY
VdW
SciTegic.value.DoubleValue
0.448

@<SCITEGIC>MOL_PROPERTY
VdW6
SciTegic.value.DoubleValue
-7.490

@<SCITEGIC>MOL_PROPERTY
VdW12
SciTegic.value.DoubleValue
7.937

@<SCITEGIC>MOL_PROPERTY
Bond
SciTegic.value.DoubleValue
0.232

@<SCITEGIC>MOL_PROPERTY
Angle
SciTegic.value.DoubleValue
1.146

@<SCITEGIC>MOL_PROPERTY
Pdih
SciTegic.value.DoubleValue
3.045

@<SCITEGIC>MOL_PROPERTY
Idih
SciTegic.value.DoubleValue
0.000

@<SCITEGIC>MOL_PROPERTY
Tether
SciTegic.value.DoubleValue
0.000

@<TRIPOS>MOLECULE
guest-s12_vm2.mol2 : vm2 ligand conformer 106
          26          25           1
SMALL
USER_CHARGES
 
@<TRIPOS>ATOM
       1    N1      19.531797   18.852929   25.906348 N.4        1 MOL1        -0.4857
       2    H1      20.236836   18.484894   26.563833 H          1 MOL1         0.3650
       3    H2      18.898113   18.062013   25.712489 H          1 MOL1         0.3650
       4    C1      20.200155   19.313990   24.626979 C.3        1 MOL1         0.0209
       5    H3      20.870256   20.139691   24.879170 H          1 MOL1         0.0967
       6    H4      19.420922   19.697398   23.966699 H          1 MOL1         0.0967
       7    C2      20.998402   18.199013   23.922145 C.3        1 MOL1        -0.1378
       8    H5      21.767854   17.839120   24.618152 H          1 MOL1         0.0993
       9    H6      20.348304   17.340433   23.707557 H          1 MOL1         0.0993
      10    C3      21.694112   18.678190   22.622936 C.3        1 MOL1        -0.1338
      11    H7      22.584091   18.054050   22.461913 H          1 MOL1         0.0993
      12    H8      22.069947   19.702610   22.753106 H          1 MOL1         0.0993
      13    C4      20.823028   18.588564   21.342668 C.3        1 MOL1        -0.1338
      14    H9      21.443456   18.886764   20.486156 H          1 MOL1         0.0993
      15    H10     20.541675   17.541544   21.164046 H          1 MOL1         0.0993
      16    C5      19.549064   19.464645   21.366842 C.3        1 MOL1        -0.1313
      17    H11     19.807218   20.492267   21.658504 H          1 MOL1         0.0993
      18    H12     18.844841   19.080151   22.115963 H          1 MOL1         0.0993
      19    C6      18.845150   19.484189   19.993121 C.3        1 MOL1        -0.2328
      20    H13     19.501904   19.899948   19.217871 H          1 MOL1         0.1004
      21    H14     17.937935   20.101061   20.031180 H          1 MOL1         0.1004
      22    H15     18.551509   18.472021   19.685681 H          1 MOL1         0.1004
      23    C7      18.766292   20.008479   26.535962 C.3        1 MOL1        -0.0781
      24    H16     18.004754   20.358822   25.835777 H          1 MOL1         0.0978
      25    H17     18.290166   19.663349   27.456466 H          1 MOL1         0.0978
      26    H18     19.462194   20.819307   26.762319 H          1 MOL1         0.0978
@<TRIPOS>BOND
    1     1     2    1
    2     1     3    1
    3     1     4    1
    4     4     5    1
    5     4     6    1
    6     4     7    1
    7     7     8    1
    8     7     9    1
    9     7    10    1
   10    10    11    1
   11    10    12    1
   12    10    13    1
   13    13    14    1
   14    13    15    1
   15    13    16    1
   16    16    17    1
   17    16    18    1
   18    16    19    1
   19    19    20    1
   20    19    21    1
   21    19    22    1
   22     1    23    1
   23    23    24    1
   24    23    25    1
   25    23    26    1
@<TRIPOS>SUBSTRUCTURE
       1 MOL1            1 RESIDUE      1      MOL     
@<SCITEGIC>MOL_PROPERTY
VM2 Rank
SciTegic.value.IntegerValue
106

@<SCITEGIC>MOL_PROPERTY
Conf_Id
SciTegic.value.IntegerValue
76

@<SCITEGIC>MOL_PROPERTY
Probability
SciTegic.value.DoubleValue
0.05

@<SCITEGIC>MOL_PROPERTY
Sum Probability
SciTegic.value.DoubleValue
98.69

@<SCITEGIC>MOL_PROPERTY
Delta G
SciTegic.value.DoubleValue
2.918

@<SCITEGIC>MOL_PROPERTY
G
SciTegic.value.DoubleValue
78.384

@<SCITEGIC>MOL_PROPERTY
E
SciTegic.value.DoubleValue
45.898

@<SCITEGIC>MOL_PROPERTY
-TS
SciTegic.value.DoubleValue
32.486

@<SCITEGIC>MOL_PROPERTY
U+W
SciTegic.value.DoubleValue
24.436

@<SCITEGIC>MOL_PROPERTY
U
SciTegic.value.DoubleValue
73.891

@<SCITEGIC>MOL_PROPERTY
W
SciTegic.value.DoubleValue
-49.455

@<SCITEGIC>MOL_PROPERTY
W(PB)
SciTegic.value.DoubleValue
-51.734

@<SCITEGIC>MOL_PROPERTY
W(SA)
SciTegic.value.DoubleValue
2.278

@<SCITEGIC>MOL_PROPERTY
Valence
SciTegic.value.DoubleValue
4.111

@<SCITEGIC>MOL_PROPERTY
Coulomb
SciTegic.value.DoubleValue
69.672

@<SCITEGIC>MOL_PROPERTY
VdW
SciTegic.value.DoubleValue
0.108

@<SCITEGIC>MOL_PROPERTY
VdW6
SciTegic.value.DoubleValue
-6.998

@<SCITEGIC>MOL_PROPERTY
VdW12
SciTegic.value.DoubleValue
7.106

@<SCITEGIC>MOL_PROPERTY
Bond
SciTegic.value.DoubleValue
0.196

@<SCITEGIC>MOL_PROPERTY
Angle
SciTegic.value.DoubleValue
1.122

@<SCITEGIC>MOL_PROPERTY
Pdih
SciTegic.value.DoubleValue
2.794

@<SCITEGIC>MOL_PROPERTY
Idih
SciTegic.value.DoubleValue
0.000

@<SCITEGIC>MOL_PROPERTY
Tether
SciTegic.value.DoubleValue
0.000

@<TRIPOS>MOLECULE
guest-s12_vm2.mol2 : vm2 ligand conformer 107
          26          25           1
SMALL
USER_CHARGES
 
@<TRIPOS>ATOM
       1    N1      19.757578   18.675125   26.342439 N.4        1 MOL1        -0.4857
       2    H1      19.998204   17.671973   26.345333 H          1 MOL1         0.3650
       3    H2      19.221092   18.818623   27.212710 H          1 MOL1         0.3650
       4    C1      18.868855   18.996877   25.148531 C.3        1 MOL1         0.0209
       5    H3      18.629345   20.062913   25.170267 H          1 MOL1         0.0967
       6    H4      17.938632   18.444499   25.304606 H          1 MOL1         0.0967
       7    C2      19.434487   18.605906   23.764857 C.3        1 MOL1        -0.1378
       8    H5      20.082307   17.724576   23.860246 H          1 MOL1         0.0993
       9    H6      18.588244   18.302592   23.136144 H          1 MOL1         0.0993
      10    C3      20.188642   19.765817   23.065989 C.3        1 MOL1        -0.1338
      11    H7      20.979859   20.145416   23.723108 H          1 MOL1         0.0993
      12    H8      19.500079   20.606579   22.903867 H          1 MOL1         0.0993
      13    C4      20.835332   19.359816   21.718439 C.3        1 MOL1        -0.1338
      14    H9      21.437961   20.203388   21.354214 H          1 MOL1         0.0993
      15    H10     21.536227   18.529567   21.881982 H          1 MOL1         0.0993
      16    C5      19.809065   18.969049   20.628319 C.3        1 MOL1        -0.1313
      17    H11     19.074669   19.776956   20.502930 H          1 MOL1         0.0993
      18    H12     19.250273   18.075173   20.935620 H          1 MOL1         0.0993
      19    C6      20.495776   18.687958   19.274637 C.3        1 MOL1        -0.2328
      20    H13     21.215678   17.863646   19.360963 H          1 MOL1         0.1004
      21    H14     21.032731   19.574179   18.912040 H          1 MOL1         0.1004
      22    H15     19.754574   18.409454   18.514326 H          1 MOL1         0.1004
      23    C7      21.018264   19.529452   26.373789 C.3        1 MOL1        -0.0781
      24    H16     20.738531   20.584827   26.347358 H          1 MOL1         0.0978
      25    H17     21.570347   19.316580   27.291918 H          1 MOL1         0.0978
      26    H18     21.639505   19.284946   25.510257 H          1 MOL1         0.0978
@<TRIPOS>BOND
    1     1     2    1
    2     1     3    1
    3     1     4    1
    4     4     5    1
    5     4     6    1
    6     4     7    1
    7     7     8    1
    8     7     9    1
    9     7    10    1
   10    10    11    1
   11    10    12    1
   12    10    13    1
   13    13    14    1
   14    13    15    1
   15    13    16    1
   16    16    17    1
   17    16    18    1
   18    16    19    1
   19    19    20    1
   20    19    21    1
   21    19    22    1
   22     1    23    1
   23    23    24    1
   24    23    25    1
   25    23    26    1
@<TRIPOS>SUBSTRUCTURE
       1 MOL1            1 RESIDUE      1      MOL     
@<SCITEGIC>MOL_PROPERTY
VM2 Rank
SciTegic.value.IntegerValue
107

@<SCITEGIC>MOL_PROPERTY
Conf_Id
SciTegic.value.IntegerValue
1478

@<SCITEGIC>MOL_PROPERTY
Probability
SciTegic.value.DoubleValue
0.05

@<SCITEGIC>MOL_PROPERTY
Sum Probability
SciTegic.value.DoubleValue
98.74

@<SCITEGIC>MOL_PROPERTY
Delta G
SciTegic.value.DoubleValue
2.925

@<SCITEGIC>MOL_PROPERTY
G
SciTegic.value.DoubleValue
78.391

@<SCITEGIC>MOL_PROPERTY
E
SciTegic.value.DoubleValue
45.923

@<SCITEGIC>MOL_PROPERTY
-TS
SciTegic.value.DoubleValue
32.468

@<SCITEGIC>MOL_PROPERTY
U+W
SciTegic.value.DoubleValue
24.461

@<SCITEGIC>MOL_PROPERTY
U
SciTegic.value.DoubleValue
73.840

@<SCITEGIC>MOL_PROPERTY
W
SciTegic.value.DoubleValue
-49.380

@<SCITEGIC>MOL_PROPERTY
W(PB)
SciTegic.value.DoubleValue
-51.644

@<SCITEGIC>MOL_PROPERTY
W(SA)
SciTegic.value.DoubleValue
2.264

@<SCITEGIC>MOL_PROPERTY
Valence
SciTegic.value.DoubleValue
4.494

@<SCITEGIC>MOL_PROPERTY
Coulomb
SciTegic.value.DoubleValue
68.796

@<SCITEGIC>MOL_PROPERTY
VdW
SciTegic.value.DoubleValue
0.550

@<SCITEGIC>MOL_PROPERTY
VdW6
SciTegic.value.DoubleValue
-7.478

@<SCITEGIC>MOL_PROPERTY
VdW12
SciTegic.value.DoubleValue
8.028

@<SCITEGIC>MOL_PROPERTY
Bond
SciTegic.value.DoubleValue
0.238

@<SCITEGIC>MOL_PROPERTY
Angle
SciTegic.value.DoubleValue
1.175

@<SCITEGIC>MOL_PROPERTY
Pdih
SciTegic.value.DoubleValue
3.082

@<SCITEGIC>MOL_PROPERTY
Idih
SciTegic.value.DoubleValue
0.000

@<SCITEGIC>MOL_PROPERTY
Tether
SciTegic.value.DoubleValue
0.000

@<TRIPOS>MOLECULE
guest-s12_vm2.mol2 : vm2 ligand conformer 108
          26          25           1
SMALL
USER_CHARGES
 
@<TRIPOS>ATOM
       1    N1      20.000006   18.691634   26.235601 N.4        1 MOL1        -0.4857
       2    H1      20.436230   18.480135   27.146989 H          1 MOL1         0.3650
       3    H2      19.521440   17.820407   25.961007 H          1 MOL1         0.3650
       4    C1      21.083713   19.039510   25.227842 C.3        1 MOL1         0.0209
       5    H3      22.000453   18.553630   25.571689 H          1 MOL1         0.0967
       6    H4      21.248014   20.119439   25.260902 H          1 MOL1         0.0967
       7    C2      20.815642   18.580737   23.776885 C.3        1 MOL1        -0.1378
       8    H5      21.712912   18.809477   23.189489 H          1 MOL1         0.0993
       9    H6      20.701883   17.488903   23.756150 H          1 MOL1         0.0993
      10    C3      19.579022   19.248121   23.124595 C.3        1 MOL1        -0.1338
      11    H7      19.666661   20.341383   23.190565 H          1 MOL1         0.0993
      12    H8      18.681139   18.971014   23.691616 H          1 MOL1         0.0993
      13    C4      19.354533   18.832005   21.649520 C.3        1 MOL1        -0.1338
      14    H9      19.283131   17.737669   21.581355 H          1 MOL1         0.0993
      15    H10     18.381155   19.224091   21.323546 H          1 MOL1         0.0993
      16    C5      20.448315   19.346520   20.683230 C.3        1 MOL1        -0.1313
      17    H11     21.420133   18.902955   20.936262 H          1 MOL1         0.0993
      18    H12     20.556986   20.434788   20.791082 H          1 MOL1         0.0993
      19    C6      20.113806   19.009815   19.214272 C.3        1 MOL1        -0.2328
      20    H13     20.027670   17.925229   19.067780 H          1 MOL1         0.1004
      21    H14     20.900239   19.378816   18.543165 H          1 MOL1         0.1004
      22    H15     19.166376   19.472386   18.908349 H          1 MOL1         0.1004
      23    C7      19.012962   19.841658   26.405054 C.3        1 MOL1        -0.0781
      24    H16     18.528221   20.054741   25.451442 H          1 MOL1         0.0978
      25    H17     18.260424   19.559635   27.144793 H          1 MOL1         0.0978
      26    H18     19.552153   20.726892   26.749222 H          1 MOL1         0.0978
@<TRIPOS>BOND
    1     1     2    1
    2     1     3    1
    3     1     4    1
    4     4     5    1
    5     4     6    1
    6     4     7    1
    7     7     8    1
    8     7     9    1
    9     7    10    1
   10    10    11    1
   11    10    12    1
   12    10    13    1
   13    13    14    1
   14    13    15    1
   15    13    16    1
   16    16    17    1
   17    16    18    1
   18    16    19    1
   19    19    20    1
   20    19    21    1
   21    19    22    1
   22     1    23    1
   23    23    24    1
   24    23    25    1
   25    23    26    1
@<TRIPOS>SUBSTRUCTURE
       1 MOL1            1 RESIDUE      1      MOL     
@<SCITEGIC>MOL_PROPERTY
VM2 Rank
SciTegic.value.IntegerValue
108

@<SCITEGIC>MOL_PROPERTY
Conf_Id
SciTegic.value.IntegerValue
1276

@<SCITEGIC>MOL_PROPERTY
Probability
SciTegic.value.DoubleValue
0.05

@<SCITEGIC>MOL_PROPERTY
Sum Probability
SciTegic.value.DoubleValue
98.79

@<SCITEGIC>MOL_PROPERTY
Delta G
SciTegic.value.DoubleValue
2.932

@<SCITEGIC>MOL_PROPERTY
G
SciTegic.value.DoubleValue
78.398

@<SCITEGIC>MOL_PROPERTY
E
SciTegic.value.DoubleValue
45.852

@<SCITEGIC>MOL_PROPERTY
-TS
SciTegic.value.DoubleValue
32.546

@<SCITEGIC>MOL_PROPERTY
U+W
SciTegic.value.DoubleValue
24.390

@<SCITEGIC>MOL_PROPERTY
U
SciTegic.value.DoubleValue
73.757

@<SCITEGIC>MOL_PROPERTY
W
SciTegic.value.DoubleValue
-49.367

@<SCITEGIC>MOL_PROPERTY
W(PB)
SciTegic.value.DoubleValue
-51.644

@<SCITEGIC>MOL_PROPERTY
W(SA)
SciTegic.value.DoubleValue
2.277

@<SCITEGIC>MOL_PROPERTY
Valence
SciTegic.value.DoubleValue
4.423

@<SCITEGIC>MOL_PROPERTY
Coulomb
SciTegic.value.DoubleValue
68.887

@<SCITEGIC>MOL_PROPERTY
VdW
SciTegic.value.DoubleValue
0.447

@<SCITEGIC>MOL_PROPERTY
VdW6
SciTegic.value.DoubleValue
-7.490

@<SCITEGIC>MOL_PROPERTY
VdW12
SciTegic.value.DoubleValue
7.937

@<SCITEGIC>MOL_PROPERTY
Bond
SciTegic.value.DoubleValue
0.232

@<SCITEGIC>MOL_PROPERTY
Angle
SciTegic.value.DoubleValue
1.146

@<SCITEGIC>MOL_PROPERTY
Pdih
SciTegic.value.DoubleValue
3.045

@<SCITEGIC>MOL_PROPERTY
Idih
SciTegic.value.DoubleValue
0.000

@<SCITEGIC>MOL_PROPERTY
Tether
SciTegic.value.DoubleValue
0.000

@<TRIPOS>MOLECULE
guest-s12_vm2.mol2 : vm2 ligand conformer 109
          26          25           1
SMALL
USER_CHARGES
 
@<TRIPOS>ATOM
       1    N1      20.204422   18.720843   26.358305 N.4        1 MOL1        -0.4857
       2    H1      20.638584   18.963629   27.262926 H          1 MOL1         0.3650
       3    H2      20.171862   17.689766   26.351614 H          1 MOL1         0.3650
       4    C1      21.091149   19.223976   25.227224 C.3        1 MOL1         0.0209
       5    H3      22.100523   18.869785   25.451966 H          1 MOL1         0.0967
       6    H4      21.108272   20.316235   25.258016 H          1 MOL1         0.0967
       7    C2      20.714402   18.736678   23.810201 C.3        1 MOL1        -0.1378
       8    H5      21.646359   18.615071   23.244451 H          1 MOL1         0.0993
       9    H6      20.252931   17.741989   23.866337 H          1 MOL1         0.0993
      10    C3      19.792272   19.725267   23.051956 C.3        1 MOL1        -0.1338
      11    H7      20.306358   20.688973   22.932490 H          1 MOL1         0.0993
      12    H8      18.896611   19.932406   23.649294 H          1 MOL1         0.0993
      13    C4      19.337019   19.206661   21.665327 C.3        1 MOL1        -0.1338
      14    H9      18.808692   18.250733   21.785273 H          1 MOL1         0.0993
      15    H10     18.603359   19.913624   21.253765 H          1 MOL1         0.0993
      16    C5      20.494894   19.039235   20.652615 C.3        1 MOL1        -0.1313
      17    H11     21.199926   18.274612   21.004720 H          1 MOL1         0.0993
      18    H12     21.057737   19.979807   20.573182 H          1 MOL1         0.0993
      19    C6      19.975766   18.634787   19.256202 C.3        1 MOL1        -0.2328
      20    H13     19.297557   19.396758   18.850468 H          1 MOL1         0.1004
      21    H14     19.433067   17.681399   19.297815 H          1 MOL1         0.1004
      22    H15     20.809396   18.517231   18.551744 H          1 MOL1         0.1004
      23    C7      18.798076   19.302552   26.295171 C.3        1 MOL1        -0.0781
      24    H16     18.301056   18.943655   25.392080 H          1 MOL1         0.0978
      25    H17     18.237516   18.976033   27.173935 H          1 MOL1         0.0978
      26    H18     18.859931   20.392841   26.280731 H          1 MOL1         0.0978
@<TRIPOS>BOND
    1     1     2    1
    2     1     3    1
    3     1     4    1
    4     4     5    1
    5     4     6    1
    6     4     7    1
    7     7     8    1
    8     7     9    1
    9     7    10    1
   10    10    11    1
   11    10    12    1
   12    10    13    1
   13    13    14    1
   14    13    15    1
   15    13    16    1
   16    16    17    1
   17    16    18    1
   18    16    19    1
   19    19    20    1
   20    19    21    1
   21    19    22    1
   22     1    23    1
   23    23    24    1
   24    23    25    1
   25    23    26    1
@<TRIPOS>SUBSTRUCTURE
       1 MOL1            1 RESIDUE      1      MOL     
@<SCITEGIC>MOL_PROPERTY
VM2 Rank
SciTegic.value.IntegerValue
109

@<SCITEGIC>MOL_PROPERTY
Conf_Id
SciTegic.value.IntegerValue
1477

@<SCITEGIC>MOL_PROPERTY
Probability
SciTegic.value.DoubleValue
0.05

@<SCITEGIC>MOL_PROPERTY
Sum Probability
SciTegic.value.DoubleValue
98.84

@<SCITEGIC>MOL_PROPERTY
Delta G
SciTegic.value.DoubleValue
2.949

@<SCITEGIC>MOL_PROPERTY
G
SciTegic.value.DoubleValue
78.415

@<SCITEGIC>MOL_PROPERTY
E
SciTegic.value.DoubleValue
45.946

@<SCITEGIC>MOL_PROPERTY
-TS
SciTegic.value.DoubleValue
32.469

@<SCITEGIC>MOL_PROPERTY
U+W
SciTegic.value.DoubleValue
24.484

@<SCITEGIC>MOL_PROPERTY
U
SciTegic.value.DoubleValue
73.840

@<SCITEGIC>MOL_PROPERTY
W
SciTegic.value.DoubleValue
-49.356

@<SCITEGIC>MOL_PROPERTY
W(PB)
SciTegic.value.DoubleValue
-51.612

@<SCITEGIC>MOL_PROPERTY
W(SA)
SciTegic.value.DoubleValue
2.256

@<SCITEGIC>MOL_PROPERTY
Valence
SciTegic.value.DoubleValue
4.494

@<SCITEGIC>MOL_PROPERTY
Coulomb
SciTegic.value.DoubleValue
68.796

@<SCITEGIC>MOL_PROPERTY
VdW
SciTegic.value.DoubleValue
0.550

@<SCITEGIC>MOL_PROPERTY
VdW6
SciTegic.value.DoubleValue
-7.478

@<SCITEGIC>MOL_PROPERTY
VdW12
SciTegic.value.DoubleValue
8.028

@<SCITEGIC>MOL_PROPERTY
Bond
SciTegic.value.DoubleValue
0.238

@<SCITEGIC>MOL_PROPERTY
Angle
SciTegic.value.DoubleValue
1.175

@<SCITEGIC>MOL_PROPERTY
Pdih
SciTegic.value.DoubleValue
3.081

@<SCITEGIC>MOL_PROPERTY
Idih
SciTegic.value.DoubleValue
0.000

@<SCITEGIC>MOL_PROPERTY
Tether
SciTegic.value.DoubleValue
0.000

@<TRIPOS>MOLECULE
guest-s12_vm2.mol2 : vm2 ligand conformer 110
          26          25           1
SMALL
USER_CHARGES
 
@<TRIPOS>ATOM
       1    N1      20.212629   19.042284   26.001806 N.4        1 MOL1        -0.4857
       2    H1      20.751293   18.176855   26.161957 H          1 MOL1         0.3650
       3    H2      19.345017   18.930865   26.549180 H          1 MOL1         0.3650
       4    C1      19.886948   19.190923   24.529425 C.3        1 MOL1         0.0209
       5    H3      20.831703   19.299352   23.992224 H          1 MOL1         0.0967
       6    H4      19.307329   20.108997   24.404685 H          1 MOL1         0.0967
       7    C2      19.100636   17.998325   23.955941 C.3        1 MOL1        -0.1378
       8    H5      19.705957   17.086355   24.044101 H          1 MOL1         0.0993
       9    H6      18.204217   17.836356   24.569237 H          1 MOL1         0.0993
      10    C3      18.661815   18.188334   22.481835 C.3        1 MOL1        -0.1338
      11    H7      17.989129   19.052812   22.394901 H          1 MOL1         0.0993
      12    H8      18.058330   17.313783   22.201587 H          1 MOL1         0.0993
      13    C4      19.829814   18.312056   21.468266 C.3        1 MOL1        -0.1338
      14    H9      20.676511   17.690323   21.790475 H          1 MOL1         0.0993
      15    H10     19.496642   17.894650   20.507862 H          1 MOL1         0.0993
      16    C5      20.293710   19.768539   21.221367 C.3        1 MOL1        -0.1313
      17    H11     20.642960   20.230750   22.151930 H          1 MOL1         0.0993
      18    H12     19.444124   20.371755   20.871866 H          1 MOL1         0.0993
      19    C6      21.426624   19.833844   20.174930 C.3        1 MOL1        -0.2328
      20    H13     22.305406   19.266854   20.508788 H          1 MOL1         0.1004
      21    H14     21.740035   20.872411   20.007047 H          1 MOL1         0.1004
      22    H15     21.099501   19.421372   19.211572 H          1 MOL1         0.1004
      23    C7      20.995824   20.255694   26.483430 C.3        1 MOL1        -0.0781
      24    H16     20.393250   21.154392   26.334428 H          1 MOL1         0.0978
      25    H17     21.223968   20.136422   27.544969 H          1 MOL1         0.0978
      26    H18     21.924105   20.333571   25.913184 H          1 MOL1         0.0978
@<TRIPOS>BOND
    1     1     2    1
    2     1     3    1
    3     1     4    1
    4     4     5    1
    5     4     6    1
    6     4     7    1
    7     7     8    1
    8     7     9    1
    9     7    10    1
   10    10    11    1
   11    10    12    1
   12    10    13    1
   13    13    14    1
   14    13    15    1
   15    13    16    1
   16    16    17    1
   17    16    18    1
   18    16    19    1
   19    19    20    1
   20    19    21    1
   21    19    22    1
   22     1    23    1
   23    23    24    1
   24    23    25    1
   25    23    26    1
@<TRIPOS>SUBSTRUCTURE
       1 MOL1            1 RESIDUE      1      MOL     
@<SCITEGIC>MOL_PROPERTY
VM2 Rank
SciTegic.value.IntegerValue
110

@<SCITEGIC>MOL_PROPERTY
Conf_Id
SciTegic.value.IntegerValue
1327

@<SCITEGIC>MOL_PROPERTY
Probability
SciTegic.value.DoubleValue
0.05

@<SCITEGIC>MOL_PROPERTY
Sum Probability
SciTegic.value.DoubleValue
98.89

@<SCITEGIC>MOL_PROPERTY
Delta G
SciTegic.value.DoubleValue
2.953

@<SCITEGIC>MOL_PROPERTY
G
SciTegic.value.DoubleValue
78.419

@<SCITEGIC>MOL_PROPERTY
E
SciTegic.value.DoubleValue
46.118

@<SCITEGIC>MOL_PROPERTY
-TS
SciTegic.value.DoubleValue
32.300

@<SCITEGIC>MOL_PROPERTY
U+W
SciTegic.value.DoubleValue
24.656

@<SCITEGIC>MOL_PROPERTY
U
SciTegic.value.DoubleValue
73.909

@<SCITEGIC>MOL_PROPERTY
W
SciTegic.value.DoubleValue
-49.253

@<SCITEGIC>MOL_PROPERTY
W(PB)
SciTegic.value.DoubleValue
-51.550

@<SCITEGIC>MOL_PROPERTY
W(SA)
SciTegic.value.DoubleValue
2.297

@<SCITEGIC>MOL_PROPERTY
Valence
SciTegic.value.DoubleValue
4.252

@<SCITEGIC>MOL_PROPERTY
Coulomb
SciTegic.value.DoubleValue
69.491

@<SCITEGIC>MOL_PROPERTY
VdW
SciTegic.value.DoubleValue
0.167

@<SCITEGIC>MOL_PROPERTY
VdW6
SciTegic.value.DoubleValue
-6.832

@<SCITEGIC>MOL_PROPERTY
VdW12
SciTegic.value.DoubleValue
6.998

@<SCITEGIC>MOL_PROPERTY
Bond
SciTegic.value.DoubleValue
0.206

@<SCITEGIC>MOL_PROPERTY
Angle
SciTegic.value.DoubleValue
1.085

@<SCITEGIC>MOL_PROPERTY
Pdih
SciTegic.value.DoubleValue
2.961

@<SCITEGIC>MOL_PROPERTY
Idih
SciTegic.value.DoubleValue
0.000

@<SCITEGIC>MOL_PROPERTY
Tether
SciTegic.value.DoubleValue
0.000

@<TRIPOS>MOLECULE
guest-s12_vm2.mol2 : vm2 ligand conformer 111
          26          25           1
SMALL
USER_CHARGES
 
@<TRIPOS>ATOM
       1    N1      19.700024   18.175090   25.277312 N.4        1 MOL1        -0.4857
       2    H1      19.841184   17.763977   24.344048 H          1 MOL1         0.3650
       3    H2      19.014648   17.559921   25.743979 H          1 MOL1         0.3650
       4    C1      19.121682   19.576157   25.153140 C.3        1 MOL1         0.0209
       5    H3      19.061584   19.984268   26.165216 H          1 MOL1         0.0967
       6    H4      18.102386   19.485554   24.769313 H          1 MOL1         0.0967
       7    C2      19.913790   20.557186   24.257674 C.3        1 MOL1        -0.1378
       8    H5      19.600183   21.574731   24.525743 H          1 MOL1         0.0993
       9    H6      20.985755   20.507921   24.486578 H          1 MOL1         0.0993
      10    C3      19.680692   20.376983   22.735573 C.3        1 MOL1        -0.1338
      11    H7      20.184813   21.203047   22.215032 H          1 MOL1         0.0993
      12    H8      18.610008   20.483990   22.512740 H          1 MOL1         0.0993
      13    C4      20.197485   19.035957   22.162029 C.3        1 MOL1        -0.1338
      14    H9      21.230992   18.864666   22.493918 H          1 MOL1         0.0993
      15    H10     19.588288   18.208038   22.544067 H          1 MOL1         0.0993
      16    C5      20.144357   19.014213   20.618089 C.3        1 MOL1        -0.1313
      17    H11     20.756921   19.831998   20.213134 H          1 MOL1         0.0993
      18    H12     19.114010   19.192784   20.279608 H          1 MOL1         0.0993
      19    C6      20.645384   17.670217   20.047436 C.3        1 MOL1        -0.2328
      20    H13     21.685420   17.479023   20.342364 H          1 MOL1         0.1004
      21    H14     20.602172   17.674818   18.950558 H          1 MOL1         0.1004
      22    H15     20.029454   16.834687   20.404747 H          1 MOL1         0.1004
      23    C7      21.004585   18.184196   26.065748 C.3        1 MOL1        -0.0781
      24    H16     20.822762   18.610547   27.054663 H          1 MOL1         0.0978
      25    H17     21.367372   17.158993   26.167650 H          1 MOL1         0.0978
      26    H18     21.745631   18.784026   25.533974 H          1 MOL1         0.0978
@<TRIPOS>BOND
    1     1     2    1
    2     1     3    1
    3     1     4    1
    4     4     5    1
    5     4     6    1
    6     4     7    1
    7     7     8    1
    8     7     9    1
    9     7    10    1
   10    10    11    1
   11    10    12    1
   12    10    13    1
   13    13    14    1
   14    13    15    1
   15    13    16    1
   16    16    17    1
   17    16    18    1
   18    16    19    1
   19    19    20    1
   20    19    21    1
   21    19    22    1
   22     1    23    1
   23    23    24    1
   24    23    25    1
   25    23    26    1
@<TRIPOS>SUBSTRUCTURE
       1 MOL1            1 RESIDUE      1      MOL     
@<SCITEGIC>MOL_PROPERTY
VM2 Rank
SciTegic.value.IntegerValue
111

@<SCITEGIC>MOL_PROPERTY
Conf_Id
SciTegic.value.IntegerValue
755

@<SCITEGIC>MOL_PROPERTY
Probability
SciTegic.value.DoubleValue
0.04

@<SCITEGIC>MOL_PROPERTY
Sum Probability
SciTegic.value.DoubleValue
98.93

@<SCITEGIC>MOL_PROPERTY
Delta G
SciTegic.value.DoubleValue
3.059

@<SCITEGIC>MOL_PROPERTY
G
SciTegic.value.DoubleValue
78.525

@<SCITEGIC>MOL_PROPERTY
E
SciTegic.value.DoubleValue
46.150

@<SCITEGIC>MOL_PROPERTY
-TS
SciTegic.value.DoubleValue
32.375

@<SCITEGIC>MOL_PROPERTY
U+W
SciTegic.value.DoubleValue
24.688

@<SCITEGIC>MOL_PROPERTY
U
SciTegic.value.DoubleValue
74.427

@<SCITEGIC>MOL_PROPERTY
W
SciTegic.value.DoubleValue
-49.738

@<SCITEGIC>MOL_PROPERTY
W(PB)
SciTegic.value.DoubleValue
-51.983

@<SCITEGIC>MOL_PROPERTY
W(SA)
SciTegic.value.DoubleValue
2.244

@<SCITEGIC>MOL_PROPERTY
Valence
SciTegic.value.DoubleValue
3.638

@<SCITEGIC>MOL_PROPERTY
Coulomb
SciTegic.value.DoubleValue
70.620

@<SCITEGIC>MOL_PROPERTY
VdW
SciTegic.value.DoubleValue
0.169

@<SCITEGIC>MOL_PROPERTY
VdW6
SciTegic.value.DoubleValue
-7.761

@<SCITEGIC>MOL_PROPERTY
VdW12
SciTegic.value.DoubleValue
7.931

@<SCITEGIC>MOL_PROPERTY
Bond
SciTegic.value.DoubleValue
0.224

@<SCITEGIC>MOL_PROPERTY
Angle
SciTegic.value.DoubleValue
1.176

@<SCITEGIC>MOL_PROPERTY
Pdih
SciTegic.value.DoubleValue
2.238

@<SCITEGIC>MOL_PROPERTY
Idih
SciTegic.value.DoubleValue
0.000

@<SCITEGIC>MOL_PROPERTY
Tether
SciTegic.value.DoubleValue
0.000

@<TRIPOS>MOLECULE
guest-s12_vm2.mol2 : vm2 ligand conformer 112
          26          25           1
SMALL
USER_CHARGES
 
@<TRIPOS>ATOM
       1    N1      20.054307   19.698590   26.002371 N.4        1 MOL1        -0.4857
       2    H1      20.332172   20.619800   26.376553 H          1 MOL1         0.3650
       3    H2      20.438052   19.012914   26.670933 H          1 MOL1         0.3650
       4    C1      20.673965   19.498512   24.629885 C.3        1 MOL1         0.0209
       5    H3      21.732789   19.757083   24.711241 H          1 MOL1         0.0967
       6    H4      20.206112   20.210576   23.948444 H          1 MOL1         0.0967
       7    C2      20.553058   18.060863   24.078183 C.3        1 MOL1        -0.1378
       8    H5      21.024766   17.379837   24.798832 H          1 MOL1         0.0993
       9    H6      19.500486   17.757679   24.009346 H          1 MOL1         0.0993
      10    C3      21.243783   17.880913   22.702760 C.3        1 MOL1        -0.1338
      11    H7      21.559935   16.832338   22.613087 H          1 MOL1         0.0993
      12    H8      22.168213   18.473868   22.665194 H          1 MOL1         0.0993
      13    C4      20.351160   18.206815   21.476837 C.3        1 MOL1        -0.1338
      14    H9      20.925740   17.985081   20.566817 H          1 MOL1         0.0993
      15    H10     19.486876   17.528474   21.463460 H          1 MOL1         0.0993
      16    C5      19.854584   19.669796   21.412190 C.3        1 MOL1        -0.1313
      17    H11     20.702049   20.358186   21.537104 H          1 MOL1         0.0993
      18    H12     19.153345   19.863322   22.234359 H          1 MOL1         0.0993
      19    C6      19.143048   19.971282   20.075872 C.3        1 MOL1        -0.2328
      20    H13     18.788040   21.009733   20.051407 H          1 MOL1         0.1004
      21    H14     18.274420   19.315007   19.934410 H          1 MOL1         0.1004
      22    H15     19.821891   19.828079   19.225077 H          1 MOL1         0.1004
      23    C7      18.534095   19.603230   25.938900 C.3        1 MOL1        -0.0781
      24    H16     18.123013   19.787460   26.933965 H          1 MOL1         0.0978
      25    H17     18.156474   20.352429   25.239686 H          1 MOL1         0.0978
      26    H18     18.247612   18.604700   25.602990 H          1 MOL1         0.0978
@<TRIPOS>BOND
    1     1     2    1
    2     1     3    1
    3     1     4    1
    4     4     5    1
    5     4     6    1
    6     4     7    1
    7     7     8    1
    8     7     9    1
    9     7    10    1
   10    10    11    1
   11    10    12    1
   12    10    13    1
   13    13    14    1
   14    13    15    1
   15    13    16    1
   16    16    17    1
   17    16    18    1
   18    16    19    1
   19    19    20    1
   20    19    21    1
   21    19    22    1
   22     1    23    1
   23    23    24    1
   24    23    25    1
   25    23    26    1
@<TRIPOS>SUBSTRUCTURE
       1 MOL1            1 RESIDUE      1      MOL     
@<SCITEGIC>MOL_PROPERTY
VM2 Rank
SciTegic.value.IntegerValue
112

@<SCITEGIC>MOL_PROPERTY
Conf_Id
SciTegic.value.IntegerValue
1620

@<SCITEGIC>MOL_PROPERTY
Probability
SciTegic.value.DoubleValue
0.04

@<SCITEGIC>MOL_PROPERTY
Sum Probability
SciTegic.value.DoubleValue
98.97

@<SCITEGIC>MOL_PROPERTY
Delta G
SciTegic.value.DoubleValue
3.073

@<SCITEGIC>MOL_PROPERTY
G
SciTegic.value.DoubleValue
78.539

@<SCITEGIC>MOL_PROPERTY
E
SciTegic.value.DoubleValue
45.891

@<SCITEGIC>MOL_PROPERTY
-TS
SciTegic.value.DoubleValue
32.648

@<SCITEGIC>MOL_PROPERTY
U+W
SciTegic.value.DoubleValue
24.429

@<SCITEGIC>MOL_PROPERTY
U
SciTegic.value.DoubleValue
74.229

@<SCITEGIC>MOL_PROPERTY
W
SciTegic.value.DoubleValue
-49.800

@<SCITEGIC>MOL_PROPERTY
W(PB)
SciTegic.value.DoubleValue
-52.057

@<SCITEGIC>MOL_PROPERTY
W(SA)
SciTegic.value.DoubleValue
2.257

@<SCITEGIC>MOL_PROPERTY
Valence
SciTegic.value.DoubleValue
4.377

@<SCITEGIC>MOL_PROPERTY
Coulomb
SciTegic.value.DoubleValue
69.549

@<SCITEGIC>MOL_PROPERTY
VdW
SciTegic.value.DoubleValue
0.303

@<SCITEGIC>MOL_PROPERTY
VdW6
SciTegic.value.DoubleValue
-7.808

@<SCITEGIC>MOL_PROPERTY
VdW12
SciTegic.value.DoubleValue
8.110

@<SCITEGIC>MOL_PROPERTY
Bond
SciTegic.value.DoubleValue
0.233

@<SCITEGIC>MOL_PROPERTY
Angle
SciTegic.value.DoubleValue
1.219

@<SCITEGIC>MOL_PROPERTY
Pdih
SciTegic.value.DoubleValue
2.926

@<SCITEGIC>MOL_PROPERTY
Idih
SciTegic.value.DoubleValue
0.000

@<SCITEGIC>MOL_PROPERTY
Tether
SciTegic.value.DoubleValue
0.000

@<TRIPOS>MOLECULE
guest-s12_vm2.mol2 : vm2 ligand conformer 113
          26          25           1
SMALL
USER_CHARGES
 
@<TRIPOS>ATOM
       1    N1      19.502472   18.515683   25.277536 N.4        1 MOL1        -0.4857
       2    H1      19.932850   17.615366   25.540288 H          1 MOL1         0.3650
       3    H2      19.080331   18.359641   24.351098 H          1 MOL1         0.3650
       4    C1      20.564776   19.595116   25.193396 C.3        1 MOL1         0.0209
       5    H3      21.009765   19.679551   26.188100 H          1 MOL1         0.0967
       6    H4      20.076775   20.544273   24.958246 H          1 MOL1         0.0967
       7    C2      21.680258   19.311687   24.165277 C.3        1 MOL1        -0.1378
       8    H5      22.565171   19.889372   24.463699 H          1 MOL1         0.0993
       9    H6      21.979143   18.256232   24.215458 H          1 MOL1         0.0993
      10    C3      21.325499   19.704420   22.708065 C.3        1 MOL1        -0.1338
      11    H7      22.217631   19.549142   22.085559 H          1 MOL1         0.0993
      12    H8      21.105345   20.780107   22.663364 H          1 MOL1         0.0993
      13    C4      20.144276   18.911511   22.099426 C.3        1 MOL1        -0.1338
      14    H9      20.309014   17.834353   22.240978 H          1 MOL1         0.0993
      15    H10     19.213647   19.173745   22.618059 H          1 MOL1         0.0993
      16    C5      19.970123   19.208925   20.593377 C.3        1 MOL1        -0.1313
      17    H11     20.890399   18.945567   20.053242 H          1 MOL1         0.0993
      18    H12     19.812354   20.286306   20.443581 H          1 MOL1         0.0993
      19    C6      18.782676   18.428700   19.989885 C.3        1 MOL1        -0.2328
      20    H13     18.927377   17.345545   20.094972 H          1 MOL1         0.1004
      21    H14     18.676135   18.651617   18.920310 H          1 MOL1         0.1004
      22    H15     17.840412   18.697525   20.484907 H          1 MOL1         0.1004
      23    C7      18.437920   18.913958   26.290038 C.3        1 MOL1        -0.0781
      24    H16     17.975622   19.852023   25.975011 H          1 MOL1         0.0978
      25    H17     17.680706   18.128428   26.341809 H          1 MOL1         0.0978
      26    H18     18.904147   19.041828   27.269432 H          1 MOL1         0.0978
@<TRIPOS>BOND
    1     1     2    1
    2     1     3    1
    3     1     4    1
    4     4     5    1
    5     4     6    1
    6     4     7    1
    7     7     8    1
    8     7     9    1
    9     7    10    1
   10    10    11    1
   11    10    12    1
   12    10    13    1
   13    13    14    1
   14    13    15    1
   15    13    16    1
   16    16    17    1
   17    16    18    1
   18    16    19    1
   19    19    20    1
   20    19    21    1
   21    19    22    1
   22     1    23    1
   23    23    24    1
   24    23    25    1
   25    23    26    1
@<TRIPOS>SUBSTRUCTURE
       1 MOL1            1 RESIDUE      1      MOL     
@<SCITEGIC>MOL_PROPERTY
VM2 Rank
SciTegic.value.IntegerValue
113

@<SCITEGIC>MOL_PROPERTY
Conf_Id
SciTegic.value.IntegerValue
543

@<SCITEGIC>MOL_PROPERTY
Probability
SciTegic.value.DoubleValue
0.04

@<SCITEGIC>MOL_PROPERTY
Sum Probability
SciTegic.value.DoubleValue
99.01

@<SCITEGIC>MOL_PROPERTY
Delta G
SciTegic.value.DoubleValue
3.117

@<SCITEGIC>MOL_PROPERTY
G
SciTegic.value.DoubleValue
78.583

@<SCITEGIC>MOL_PROPERTY
E
SciTegic.value.DoubleValue
46.237

@<SCITEGIC>MOL_PROPERTY
-TS
SciTegic.value.DoubleValue
32.346

@<SCITEGIC>MOL_PROPERTY
U+W
SciTegic.value.DoubleValue
24.775

@<SCITEGIC>MOL_PROPERTY
U
SciTegic.value.DoubleValue
73.982

@<SCITEGIC>MOL_PROPERTY
W
SciTegic.value.DoubleValue
-49.207

@<SCITEGIC>MOL_PROPERTY
W(PB)
SciTegic.value.DoubleValue
-51.488

@<SCITEGIC>MOL_PROPERTY
W(SA)
SciTegic.value.DoubleValue
2.280

@<SCITEGIC>MOL_PROPERTY
Valence
SciTegic.value.DoubleValue
3.347

@<SCITEGIC>MOL_PROPERTY
Coulomb
SciTegic.value.DoubleValue
70.654

@<SCITEGIC>MOL_PROPERTY
VdW
SciTegic.value.DoubleValue
-0.018

@<SCITEGIC>MOL_PROPERTY
VdW6
SciTegic.value.DoubleValue
-6.980

@<SCITEGIC>MOL_PROPERTY
VdW12
SciTegic.value.DoubleValue
6.962

@<SCITEGIC>MOL_PROPERTY
Bond
SciTegic.value.DoubleValue
0.176

@<SCITEGIC>MOL_PROPERTY
Angle
SciTegic.value.DoubleValue
0.935

@<SCITEGIC>MOL_PROPERTY
Pdih
SciTegic.value.DoubleValue
2.235

@<SCITEGIC>MOL_PROPERTY
Idih
SciTegic.value.DoubleValue
0.000

@<SCITEGIC>MOL_PROPERTY
Tether
SciTegic.value.DoubleValue
0.000

@<TRIPOS>MOLECULE
guest-s12_vm2.mol2 : vm2 ligand conformer 114
          26          25           1
SMALL
USER_CHARGES
 
@<TRIPOS>ATOM
       1    N1      19.619396   19.846715   25.914382 N.4        1 MOL1        -0.4857
       2    H1      19.044272   20.693974   26.045678 H          1 MOL1         0.3650
       3    H2      20.450562   19.994682   26.507409 H          1 MOL1         0.3650
       4    C1      20.028660   19.729552   24.455869 C.3        1 MOL1         0.0209
       5    H3      20.432077   20.698708   24.151647 H          1 MOL1         0.0967
       6    H4      19.125558   19.534980   23.873322 H          1 MOL1         0.0967
       7    C2      21.079048   18.636604   24.173014 C.3        1 MOL1        -0.1378
       8    H5      21.923360   18.771766   24.861834 H          1 MOL1         0.0993
       9    H6      20.654483   17.648621   24.393234 H          1 MOL1         0.0993
      10    C3      21.620428   18.650661   22.721050 C.3        1 MOL1        -0.1338
      11    H7      22.414455   17.893644   22.657861 H          1 MOL1         0.0993
      12    H8      22.109094   19.611305   22.507272 H          1 MOL1         0.0993
      13    C4      20.563738   18.330051   21.631335 C.3        1 MOL1        -0.1338
      14    H9      21.076085   17.842926   20.790024 H          1 MOL1         0.0993
      15    H10     19.840961   17.595012   22.011571 H          1 MOL1         0.0993
      16    C5      19.826518   19.577017   21.084722 C.3        1 MOL1        -0.1313
      17    H11     20.558822   20.294641   20.689068 H          1 MOL1         0.0993
      18    H12     19.284438   20.092700   21.885685 H          1 MOL1         0.0993
      19    C6      18.828934   19.202378   19.967885 C.3        1 MOL1        -0.2328
      20    H13     18.318490   20.096827   19.587834 H          1 MOL1         0.1004
      21    H14     18.062496   18.509734   20.339394 H          1 MOL1         0.1004
      22    H15     19.341884   18.723652   19.123548 H          1 MOL1         0.1004
      23    C7      18.841278   18.617022   26.368743 C.3        1 MOL1        -0.0781
      24    H16     18.535070   18.752167   27.408478 H          1 MOL1         0.0978
      25    H17     17.958441   18.497429   25.736979 H          1 MOL1         0.0978
      26    H18     19.478956   17.734632   26.285826 H          1 MOL1         0.0978
@<TRIPOS>BOND
    1     1     2    1
    2     1     3    1
    3     1     4    1
    4     4     5    1
    5     4     6    1
    6     4     7    1
    7     7     8    1
    8     7     9    1
    9     7    10    1
   10    10    11    1
   11    10    12    1
   12    10    13    1
   13    13    14    1
   14    13    15    1
   15    13    16    1
   16    16    17    1
   17    16    18    1
   18    16    19    1
   19    19    20    1
   20    19    21    1
   21    19    22    1
   22     1    23    1
   23    23    24    1
   24    23    25    1
   25    23    26    1
@<TRIPOS>SUBSTRUCTURE
       1 MOL1            1 RESIDUE      1      MOL     
@<SCITEGIC>MOL_PROPERTY
VM2 Rank
SciTegic.value.IntegerValue
114

@<SCITEGIC>MOL_PROPERTY
Conf_Id
SciTegic.value.IntegerValue
569

@<SCITEGIC>MOL_PROPERTY
Probability
SciTegic.value.DoubleValue
0.04

@<SCITEGIC>MOL_PROPERTY
Sum Probability
SciTegic.value.DoubleValue
99.04

@<SCITEGIC>MOL_PROPERTY
Delta G
SciTegic.value.DoubleValue
3.122

@<SCITEGIC>MOL_PROPERTY
G
SciTegic.value.DoubleValue
78.588

@<SCITEGIC>MOL_PROPERTY
E
SciTegic.value.DoubleValue
46.171

@<SCITEGIC>MOL_PROPERTY
-TS
SciTegic.value.DoubleValue
32.417

@<SCITEGIC>MOL_PROPERTY
U+W
SciTegic.value.DoubleValue
24.709

@<SCITEGIC>MOL_PROPERTY
U
SciTegic.value.DoubleValue
74.305

@<SCITEGIC>MOL_PROPERTY
W
SciTegic.value.DoubleValue
-49.596

@<SCITEGIC>MOL_PROPERTY
W(PB)
SciTegic.value.DoubleValue
-51.865

@<SCITEGIC>MOL_PROPERTY
W(SA)
SciTegic.value.DoubleValue
2.269

@<SCITEGIC>MOL_PROPERTY
Valence
SciTegic.value.DoubleValue
4.513

@<SCITEGIC>MOL_PROPERTY
Coulomb
SciTegic.value.DoubleValue
69.361

@<SCITEGIC>MOL_PROPERTY
VdW
SciTegic.value.DoubleValue
0.431

@<SCITEGIC>MOL_PROPERTY
VdW6
SciTegic.value.DoubleValue
-7.509

@<SCITEGIC>MOL_PROPERTY
VdW12
SciTegic.value.DoubleValue
7.941

@<SCITEGIC>MOL_PROPERTY
Bond
SciTegic.value.DoubleValue
0.240

@<SCITEGIC>MOL_PROPERTY
Angle
SciTegic.value.DoubleValue
1.205

@<SCITEGIC>MOL_PROPERTY
Pdih
SciTegic.value.DoubleValue
3.068

@<SCITEGIC>MOL_PROPERTY
Idih
SciTegic.value.DoubleValue
0.000

@<SCITEGIC>MOL_PROPERTY
Tether
SciTegic.value.DoubleValue
0.000

@<TRIPOS>MOLECULE
guest-s12_vm2.mol2 : vm2 ligand conformer 115
          26          25           1
SMALL
USER_CHARGES
 
@<TRIPOS>ATOM
       1    N1      20.132414   19.899285   25.932631 N.4        1 MOL1        -0.4857
       2    H1      19.248952   19.872001   26.464760 H          1 MOL1         0.3650
       3    H2      20.513749   20.844354   26.097800 H          1 MOL1         0.3650
       4    C1      19.858710   19.712140   24.449877 C.3        1 MOL1         0.0209
       5    H3      20.821112   19.708432   23.933565 H          1 MOL1         0.0967
       6    H4      19.289959   20.581800   24.111092 H          1 MOL1         0.0967
       7    C2      19.073622   18.431344   24.101937 C.3        1 MOL1        -0.1378
       8    H5      19.672881   17.548137   24.358248 H          1 MOL1         0.0993
       9    H6      18.173392   18.387844   24.729071 H          1 MOL1         0.0993
      10    C3      18.643392   18.346126   22.615619 C.3        1 MOL1        -0.1338
      11    H7      17.986735   19.189639   22.361413 H          1 MOL1         0.0993
      12    H8      18.025222   17.444678   22.502468 H          1 MOL1         0.0993
      13    C4      19.816549   18.253629   21.604678 C.3        1 MOL1        -0.1338
      14    H9      20.644518   17.676885   22.039537 H          1 MOL1         0.0993
      15    H10     19.473179   17.679339   20.732964 H          1 MOL1         0.0993
      16    C5      20.323086   19.627798   21.102404 C.3        1 MOL1        -0.1313
      17    H11     20.692768   20.236268   21.935720 H          1 MOL1         0.0993
      18    H12     19.490361   20.185772   20.651814 H          1 MOL1         0.0993
      19    C6      21.451082   19.470609   20.060405 C.3        1 MOL1        -0.2328
      20    H13     22.313746   18.944070   20.489086 H          1 MOL1         0.1004
      21    H14     21.795727   20.452502   19.710925 H          1 MOL1         0.1004
      22    H15     21.105391   18.904624   19.185555 H          1 MOL1         0.1004
      23    C7      21.109146   18.849070   26.449449 C.3        1 MOL1        -0.0781
      24    H16     22.040058   18.914824   25.882081 H          1 MOL1         0.0978
      25    H17     21.307966   19.035992   27.507092 H          1 MOL1         0.0978
      26    H18     20.670385   17.856615   26.328447 H          1 MOL1         0.0978
@<TRIPOS>BOND
    1     1     2    1
    2     1     3    1
    3     1     4    1
    4     4     5    1
    5     4     6    1
    6     4     7    1
    7     7     8    1
    8     7     9    1
    9     7    10    1
   10    10    11    1
   11    10    12    1
   12    10    13    1
   13    13    14    1
   14    13    15    1
   15    13    16    1
   16    16    17    1
   17    16    18    1
   18    16    19    1
   19    19    20    1
   20    19    21    1
   21    19    22    1
   22     1    23    1
   23    23    24    1
   24    23    25    1
   25    23    26    1
@<TRIPOS>SUBSTRUCTURE
       1 MOL1            1 RESIDUE      1      MOL     
@<SCITEGIC>MOL_PROPERTY
VM2 Rank
SciTegic.value.IntegerValue
115

@<SCITEGIC>MOL_PROPERTY
Conf_Id
SciTegic.value.IntegerValue
1226

@<SCITEGIC>MOL_PROPERTY
Probability
SciTegic.value.DoubleValue
0.04

@<SCITEGIC>MOL_PROPERTY
Sum Probability
SciTegic.value.DoubleValue
99.08

@<SCITEGIC>MOL_PROPERTY
Delta G
SciTegic.value.DoubleValue
3.134

@<SCITEGIC>MOL_PROPERTY
G
SciTegic.value.DoubleValue
78.600

@<SCITEGIC>MOL_PROPERTY
E
SciTegic.value.DoubleValue
46.184

@<SCITEGIC>MOL_PROPERTY
-TS
SciTegic.value.DoubleValue
32.416

@<SCITEGIC>MOL_PROPERTY
U+W
SciTegic.value.DoubleValue
24.722

@<SCITEGIC>MOL_PROPERTY
U
SciTegic.value.DoubleValue
74.305

@<SCITEGIC>MOL_PROPERTY
W
SciTegic.value.DoubleValue
-49.583

@<SCITEGIC>MOL_PROPERTY
W(PB)
SciTegic.value.DoubleValue
-51.861

@<SCITEGIC>MOL_PROPERTY
W(SA)
SciTegic.value.DoubleValue
2.278

@<SCITEGIC>MOL_PROPERTY
Valence
SciTegic.value.DoubleValue
4.513

@<SCITEGIC>MOL_PROPERTY
Coulomb
SciTegic.value.DoubleValue
69.361

@<SCITEGIC>MOL_PROPERTY
VdW
SciTegic.value.DoubleValue
0.431

@<SCITEGIC>MOL_PROPERTY
VdW6
SciTegic.value.DoubleValue
-7.509

@<SCITEGIC>MOL_PROPERTY
VdW12
SciTegic.value.DoubleValue
7.940

@<SCITEGIC>MOL_PROPERTY
Bond
SciTegic.value.DoubleValue
0.240

@<SCITEGIC>MOL_PROPERTY
Angle
SciTegic.value.DoubleValue
1.206

@<SCITEGIC>MOL_PROPERTY
Pdih
SciTegic.value.DoubleValue
3.067

@<SCITEGIC>MOL_PROPERTY
Idih
SciTegic.value.DoubleValue
0.000

@<SCITEGIC>MOL_PROPERTY
Tether
SciTegic.value.DoubleValue
0.000

@<TRIPOS>MOLECULE
guest-s12_vm2.mol2 : vm2 ligand conformer 116
          26          25           1
SMALL
USER_CHARGES
 
@<TRIPOS>ATOM
       1    N1      19.732452   19.666390   25.990940 N.4        1 MOL1        -0.4857
       2    H1      19.446814   18.913387   26.635750 H          1 MOL1         0.3650
       3    H2      19.250834   20.511121   26.337814 H          1 MOL1         0.3650
       4    C1      19.263616   19.356288   24.579645 C.3        1 MOL1         0.0209
       5    H3      19.626883   20.152137   23.927773 H          1 MOL1         0.0967
       6    H4      18.171444   19.397816   24.584233 H          1 MOL1         0.0967
       7    C2      19.707572   17.975570   24.048280 C.3        1 MOL1        -0.1378
       8    H5      20.801667   17.889142   24.055714 H          1 MOL1         0.0993
       9    H6      19.331898   17.209127   24.738986 H          1 MOL1         0.0993
      10    C3      19.165031   17.670754   22.629121 C.3        1 MOL1        -0.1338
      11    H7      18.145655   18.067100   22.522544 H          1 MOL1         0.0993
      12    H8      19.072044   16.580787   22.525065 H          1 MOL1         0.0993
      13    C4      20.058200   18.177110   21.466482 C.3        1 MOL1        -0.1338
      14    H9      21.039470   17.685483   21.518676 H          1 MOL1         0.0993
      15    H10     19.604874   17.851209   20.520052 H          1 MOL1         0.0993
      16    C5      20.255377   19.710267   21.426142 C.3        1 MOL1        -0.1313
      17    H11     20.844442   20.034463   22.293924 H          1 MOL1         0.0993
      18    H12     19.280717   20.214332   21.486476 H          1 MOL1         0.0993
      19    C6      20.983972   20.157241   20.140729 C.3        1 MOL1        -0.2328
      20    H13     21.974078   19.689049   20.065174 H          1 MOL1         0.1004
      21    H14     21.124836   21.245872   20.133611 H          1 MOL1         0.1004
      22    H15     20.408776   19.886958   19.245583 H          1 MOL1         0.1004
      23    C7      21.241780   19.876381   26.035661 C.3        1 MOL1        -0.0781
      24    H16     21.536555   20.131939   27.055897 H          1 MOL1         0.0978
      25    H17     21.744514   18.957334   25.728119 H          1 MOL1         0.0978
      26    H18     21.510947   20.690643   25.359402 H          1 MOL1         0.0978
@<TRIPOS>BOND
    1     1     2    1
    2     1     3    1
    3     1     4    1
    4     4     5    1
    5     4     6    1
    6     4     7    1
    7     7     8    1
    8     7     9    1
    9     7    10    1
   10    10    11    1
   11    10    12    1
   12    10    13    1
   13    13    14    1
   14    13    15    1
   15    13    16    1
   16    16    17    1
   17    16    18    1
   18    16    19    1
   19    19    20    1
   20    19    21    1
   21    19    22    1
   22     1    23    1
   23    23    24    1
   24    23    25    1
   25    23    26    1
@<TRIPOS>SUBSTRUCTURE
       1 MOL1            1 RESIDUE      1      MOL     
@<SCITEGIC>MOL_PROPERTY
VM2 Rank
SciTegic.value.IntegerValue
116

@<SCITEGIC>MOL_PROPERTY
Conf_Id
SciTegic.value.IntegerValue
563

@<SCITEGIC>MOL_PROPERTY
Probability
SciTegic.value.DoubleValue
0.04

@<SCITEGIC>MOL_PROPERTY
Sum Probability
SciTegic.value.DoubleValue
99.12

@<SCITEGIC>MOL_PROPERTY
Delta G
SciTegic.value.DoubleValue
3.142

@<SCITEGIC>MOL_PROPERTY
G
SciTegic.value.DoubleValue
78.608

@<SCITEGIC>MOL_PROPERTY
E
SciTegic.value.DoubleValue
45.960

@<SCITEGIC>MOL_PROPERTY
-TS
SciTegic.value.DoubleValue
32.648

@<SCITEGIC>MOL_PROPERTY
U+W
SciTegic.value.DoubleValue
24.498

@<SCITEGIC>MOL_PROPERTY
U
SciTegic.value.DoubleValue
74.229

@<SCITEGIC>MOL_PROPERTY
W
SciTegic.value.DoubleValue
-49.731

@<SCITEGIC>MOL_PROPERTY
W(PB)
SciTegic.value.DoubleValue
-51.984

@<SCITEGIC>MOL_PROPERTY
W(SA)
SciTegic.value.DoubleValue
2.253

@<SCITEGIC>MOL_PROPERTY
Valence
SciTegic.value.DoubleValue
4.376

@<SCITEGIC>MOL_PROPERTY
Coulomb
SciTegic.value.DoubleValue
69.549

@<SCITEGIC>MOL_PROPERTY
VdW
SciTegic.value.DoubleValue
0.303

@<SCITEGIC>MOL_PROPERTY
VdW6
SciTegic.value.DoubleValue
-7.807

@<SCITEGIC>MOL_PROPERTY
VdW12
SciTegic.value.DoubleValue
8.111

@<SCITEGIC>MOL_PROPERTY
Bond
SciTegic.value.DoubleValue
0.233

@<SCITEGIC>MOL_PROPERTY
Angle
SciTegic.value.DoubleValue
1.219

@<SCITEGIC>MOL_PROPERTY
Pdih
SciTegic.value.DoubleValue
2.924

@<SCITEGIC>MOL_PROPERTY
Idih
SciTegic.value.DoubleValue
0.000

@<SCITEGIC>MOL_PROPERTY
Tether
SciTegic.value.DoubleValue
0.000

@<TRIPOS>MOLECULE
guest-s12_vm2.mol2 : vm2 ligand conformer 117
          26          25           1
SMALL
USER_CHARGES
 
@<TRIPOS>ATOM
       1    N1      20.560548   18.623997   25.315018 N.4        1 MOL1        -0.4857
       2    H1      21.069275   18.563172   24.421521 H          1 MOL1         0.3650
       3    H2      20.304019   17.653370   25.553575 H          1 MOL1         0.3650
       4    C1      19.310275   19.466608   25.148961 C.3        1 MOL1         0.0209
       5    H3      19.611271   20.496564   24.941759 H          1 MOL1         0.0967
       6    H4      18.788875   19.452079   26.109434 H          1 MOL1         0.0967
       7    C2      18.350051   18.970616   24.047313 C.3        1 MOL1        -0.1378
       8    H5      18.268283   17.876174   24.083989 H          1 MOL1         0.0993
       9    H6      17.347829   19.355017   24.278904 H          1 MOL1         0.0993
      10    C3      18.719092   19.437503   22.615745 C.3        1 MOL1        -0.1338
      11    H7      18.719460   20.535779   22.578862 H          1 MOL1         0.0993
      12    H8      17.922714   19.109275   21.933417 H          1 MOL1         0.0993
      13    C4      20.076064   18.904582   22.097040 C.3        1 MOL1        -0.1338
      14    H9      20.895657   19.346149   22.677648 H          1 MOL1         0.0993
      15    H10     20.123368   17.815403   22.234498 H          1 MOL1         0.0993
      16    C5      20.291422   19.241793   20.604767 C.3        1 MOL1        -0.1313
      17    H11     20.237824   20.329835   20.458574 H          1 MOL1         0.0993
      18    H12     19.483698   18.801347   20.003434 H          1 MOL1         0.0993
      19    C6      21.651576   18.722530   20.091606 C.3        1 MOL1        -0.2328
      20    H13     21.722250   17.631802   20.194189 H          1 MOL1         0.1004
      21    H14     22.482823   19.173123   20.649431 H          1 MOL1         0.1004
      22    H15     21.785422   18.969959   19.030523 H          1 MOL1         0.1004
      23    C7      21.448971   19.222370   26.396551 C.3        1 MOL1        -0.0781
      24    H16     22.344007   18.606041   26.506836 H          1 MOL1         0.0978
      25    H17     21.732690   20.236796   26.107810 H          1 MOL1         0.0978
      26    H18     20.899188   19.246299   27.339998 H          1 MOL1         0.0978
@<TRIPOS>BOND
    1     1     2    1
    2     1     3    1
    3     1     4    1
    4     4     5    1
    5     4     6    1
    6     4     7    1
    7     7     8    1
    8     7     9    1
    9     7    10    1
   10    10    11    1
   11    10    12    1
   12    10    13    1
   13    13    14    1
   14    13    15    1
   15    13    16    1
   16    16    17    1
   17    16    18    1
   18    16    19    1
   19    19    20    1
   20    19    21    1
   21    19    22    1
   22     1    23    1
   23    23    24    1
   24    23    25    1
   25    23    26    1
@<TRIPOS>SUBSTRUCTURE
       1 MOL1            1 RESIDUE      1      MOL     
@<SCITEGIC>MOL_PROPERTY
VM2 Rank
SciTegic.value.IntegerValue
117

@<SCITEGIC>MOL_PROPERTY
Conf_Id
SciTegic.value.IntegerValue
952

@<SCITEGIC>MOL_PROPERTY
Probability
SciTegic.value.DoubleValue
0.04

@<SCITEGIC>MOL_PROPERTY
Sum Probability
SciTegic.value.DoubleValue
99.15

@<SCITEGIC>MOL_PROPERTY
Delta G
SciTegic.value.DoubleValue
3.149

@<SCITEGIC>MOL_PROPERTY
G
SciTegic.value.DoubleValue
78.615

@<SCITEGIC>MOL_PROPERTY
E
SciTegic.value.DoubleValue
46.268

@<SCITEGIC>MOL_PROPERTY
-TS
SciTegic.value.DoubleValue
32.346

@<SCITEGIC>MOL_PROPERTY
U+W
SciTegic.value.DoubleValue
24.807

@<SCITEGIC>MOL_PROPERTY
U
SciTegic.value.DoubleValue
73.983

@<SCITEGIC>MOL_PROPERTY
W
SciTegic.value.DoubleValue
-49.176

@<SCITEGIC>MOL_PROPERTY
W(PB)
SciTegic.value.DoubleValue
-51.452

@<SCITEGIC>MOL_PROPERTY
W(SA)
SciTegic.value.DoubleValue
2.276

@<SCITEGIC>MOL_PROPERTY
Valence
SciTegic.value.DoubleValue
3.347

@<SCITEGIC>MOL_PROPERTY
Coulomb
SciTegic.value.DoubleValue
70.654

@<SCITEGIC>MOL_PROPERTY
VdW
SciTegic.value.DoubleValue
-0.018

@<SCITEGIC>MOL_PROPERTY
VdW6
SciTegic.value.DoubleValue
-6.981

@<SCITEGIC>MOL_PROPERTY
VdW12
SciTegic.value.DoubleValue
6.962

@<SCITEGIC>MOL_PROPERTY
Bond
SciTegic.value.DoubleValue
0.176

@<SCITEGIC>MOL_PROPERTY
Angle
SciTegic.value.DoubleValue
0.935

@<SCITEGIC>MOL_PROPERTY
Pdih
SciTegic.value.DoubleValue
2.236

@<SCITEGIC>MOL_PROPERTY
Idih
SciTegic.value.DoubleValue
0.000

@<SCITEGIC>MOL_PROPERTY
Tether
SciTegic.value.DoubleValue
0.000

@<TRIPOS>MOLECULE
guest-s12_vm2.mol2 : vm2 ligand conformer 118
          26          25           1
SMALL
USER_CHARGES
 
@<TRIPOS>ATOM
       1    N1      20.348394   19.333089   25.761691 N.4        1 MOL1        -0.4857
       2    H1      21.161890   18.708106   25.865981 H          1 MOL1         0.3650
       3    H2      20.102543   19.611191   26.724822 H          1 MOL1         0.3650
       4    C1      19.179837   18.579691   25.144838 C.3        1 MOL1         0.0209
       5    H3      18.500497   19.306132   24.692878 H          1 MOL1         0.0967
       6    H4      18.648483   18.100094   25.970861 H          1 MOL1         0.0967
       7    C2      19.560034   17.480848   24.124936 C.3        1 MOL1        -0.1378
       8    H5      20.233598   16.761792   24.609435 H          1 MOL1         0.0993
       9    H6      18.652167   16.918226   23.870166 H          1 MOL1         0.0993
      10    C3      20.213858   17.991067   22.817260 C.3        1 MOL1        -0.1338
      11    H7      20.449407   17.124956   22.183715 H          1 MOL1         0.0993
      12    H8      21.175686   18.462752   23.050275 H          1 MOL1         0.0993
      13    C4      19.304201   18.962695   22.022960 C.3        1 MOL1        -0.1338
      14    H9      18.340086   18.471760   21.831527 H          1 MOL1         0.0993
      15    H10     19.080722   19.854355   22.622770 H          1 MOL1         0.0993
      16    C5      19.911023   19.402387   20.668912 C.3        1 MOL1        -0.1313
      17    H11     19.157926   19.981710   20.116579 H          1 MOL1         0.0993
      18    H12     20.130053   18.518373   20.053838 H          1 MOL1         0.0993
      19    C6      21.187010   20.261981   20.819940 C.3        1 MOL1        -0.2328
      20    H13     20.999599   21.140072   21.451385 H          1 MOL1         0.1004
      21    H14     21.525900   20.620977   19.839543 H          1 MOL1         0.1004
      22    H15     22.010687   19.688648   21.262694 H          1 MOL1         0.1004
      23    C7      20.703642   20.578243   24.956465 C.3        1 MOL1        -0.0781
      24    H16     19.830877   21.232932   24.907716 H          1 MOL1         0.0978
      25    H17     21.526390   21.099455   25.450896 H          1 MOL1         0.0978
      26    H18     21.005241   20.291423   23.948414 H          1 MOL1         0.0978
@<TRIPOS>BOND
    1     1     2    1
    2     1     3    1
    3     1     4    1
    4     4     5    1
    5     4     6    1
    6     4     7    1
    7     7     8    1
    8     7     9    1
    9     7    10    1
   10    10    11    1
   11    10    12    1
   12    10    13    1
   13    13    14    1
   14    13    15    1
   15    13    16    1
   16    16    17    1
   17    16    18    1
   18    16    19    1
   19    19    20    1
   20    19    21    1
   21    19    22    1
   22     1    23    1
   23    23    24    1
   24    23    25    1
   25    23    26    1
@<TRIPOS>SUBSTRUCTURE
       1 MOL1            1 RESIDUE      1      MOL     
@<SCITEGIC>MOL_PROPERTY
VM2 Rank
SciTegic.value.IntegerValue
118

@<SCITEGIC>MOL_PROPERTY
Conf_Id
SciTegic.value.IntegerValue
795

@<SCITEGIC>MOL_PROPERTY
Probability
SciTegic.value.DoubleValue
0.03

@<SCITEGIC>MOL_PROPERTY
Sum Probability
SciTegic.value.DoubleValue
99.19

@<SCITEGIC>MOL_PROPERTY
Delta G
SciTegic.value.DoubleValue
3.157

@<SCITEGIC>MOL_PROPERTY
G
SciTegic.value.DoubleValue
78.623

@<SCITEGIC>MOL_PROPERTY
E
SciTegic.value.DoubleValue
45.496

@<SCITEGIC>MOL_PROPERTY
-TS
SciTegic.value.DoubleValue
33.127

@<SCITEGIC>MOL_PROPERTY
U+W
SciTegic.value.DoubleValue
24.034

@<SCITEGIC>MOL_PROPERTY
U
SciTegic.value.DoubleValue
74.178

@<SCITEGIC>MOL_PROPERTY
W
SciTegic.value.DoubleValue
-50.144

@<SCITEGIC>MOL_PROPERTY
W(PB)
SciTegic.value.DoubleValue
-52.281

@<SCITEGIC>MOL_PROPERTY
W(SA)
SciTegic.value.DoubleValue
2.138

@<SCITEGIC>MOL_PROPERTY
Valence
SciTegic.value.DoubleValue
4.525

@<SCITEGIC>MOL_PROPERTY
Coulomb
SciTegic.value.DoubleValue
69.761

@<SCITEGIC>MOL_PROPERTY
VdW
SciTegic.value.DoubleValue
-0.108

@<SCITEGIC>MOL_PROPERTY
VdW6
SciTegic.value.DoubleValue
-9.142

@<SCITEGIC>MOL_PROPERTY
VdW12
SciTegic.value.DoubleValue
9.034

@<SCITEGIC>MOL_PROPERTY
Bond
SciTegic.value.DoubleValue
0.254

@<SCITEGIC>MOL_PROPERTY
Angle
SciTegic.value.DoubleValue
1.399

@<SCITEGIC>MOL_PROPERTY
Pdih
SciTegic.value.DoubleValue
2.871

@<SCITEGIC>MOL_PROPERTY
Idih
SciTegic.value.DoubleValue
0.000

@<SCITEGIC>MOL_PROPERTY
Tether
SciTegic.value.DoubleValue
0.000

@<TRIPOS>MOLECULE
guest-s12_vm2.mol2 : vm2 ligand conformer 119
          26          25           1
SMALL
USER_CHARGES
 
@<TRIPOS>ATOM
       1    N1      19.712390   18.863192   25.904005 N.4        1 MOL1        -0.4857
       2    H1      20.594745   19.101757   26.381435 H          1 MOL1         0.3650
       3    H2      19.177479   18.314578   26.595617 H          1 MOL1         0.3650
       4    C1      19.989354   17.995561   24.685514 C.3        1 MOL1         0.0209
       5    H3      19.124833   18.045073   24.019341 H          1 MOL1         0.0967
       6    H4      20.066918   16.968217   25.050484 H          1 MOL1         0.0967
       7    C2      21.290407   18.321750   23.915957 C.3        1 MOL1        -0.1378
       8    H5      22.133149   18.315879   24.619593 H          1 MOL1         0.0993
       9    H6      21.489833   17.502708   23.213426 H          1 MOL1         0.0993
      10    C3      21.284141   19.664068   23.139401 C.3        1 MOL1        -0.1338
      11    H7      22.235106   19.760901   22.597719 H          1 MOL1         0.0993
      12    H8      21.270235   20.497142   23.853607 H          1 MOL1         0.0993
      13    C4      20.115057   19.832097   22.134118 C.3        1 MOL1        -0.1338
      14    H9      19.154398   19.817680   22.664797 H          1 MOL1         0.0993
      15    H10     20.192836   20.827803   21.676126 H          1 MOL1         0.0993
      16    C5      20.104117   18.764087   21.015071 C.3        1 MOL1        -0.1313
      17    H11     19.955552   17.765175   21.446415 H          1 MOL1         0.0993
      18    H12     21.077902   18.749937   20.505889 H          1 MOL1         0.0993
      19    C6      18.989805   19.033731   19.981462 C.3        1 MOL1        -0.2328
      20    H13     18.994765   18.265979   19.196906 H          1 MOL1         0.1004
      21    H14     19.126920   20.009682   19.497846 H          1 MOL1         0.1004
      22    H15     18.000081   19.023528   20.456350 H          1 MOL1         0.1004
      23    C7      18.922729   20.115515   25.541473 C.3        1 MOL1        -0.0781
      24    H16     19.504242   20.730714   24.854229 H          1 MOL1         0.0978
      25    H17     17.982893   19.821315   25.069396 H          1 MOL1         0.0978
      26    H18     18.714829   20.681330   26.452336 H          1 MOL1         0.0978
@<TRIPOS>BOND
    1     1     2    1
    2     1     3    1
    3     1     4    1
    4     4     5    1
    5     4     6    1
    6     4     7    1
    7     7     8    1
    8     7     9    1
    9     7    10    1
   10    10    11    1
   11    10    12    1
   12    10    13    1
   13    13    14    1
   14    13    15    1
   15    13    16    1
   16    16    17    1
   17    16    18    1
   18    16    19    1
   19    19    20    1
   20    19    21    1
   21    19    22    1
   22     1    23    1
   23    23    24    1
   24    23    25    1
   25    23    26    1
@<TRIPOS>SUBSTRUCTURE
       1 MOL1            1 RESIDUE      1      MOL     
@<SCITEGIC>MOL_PROPERTY
VM2 Rank
SciTegic.value.IntegerValue
119

@<SCITEGIC>MOL_PROPERTY
Conf_Id
SciTegic.value.IntegerValue
261

@<SCITEGIC>MOL_PROPERTY
Probability
SciTegic.value.DoubleValue
0.03

@<SCITEGIC>MOL_PROPERTY
Sum Probability
SciTegic.value.DoubleValue
99.22

@<SCITEGIC>MOL_PROPERTY
Delta G
SciTegic.value.DoubleValue
3.184

@<SCITEGIC>MOL_PROPERTY
G
SciTegic.value.DoubleValue
78.650

@<SCITEGIC>MOL_PROPERTY
E
SciTegic.value.DoubleValue
45.555

@<SCITEGIC>MOL_PROPERTY
-TS
SciTegic.value.DoubleValue
33.095

@<SCITEGIC>MOL_PROPERTY
U+W
SciTegic.value.DoubleValue
24.093

@<SCITEGIC>MOL_PROPERTY
U
SciTegic.value.DoubleValue
74.107

@<SCITEGIC>MOL_PROPERTY
W
SciTegic.value.DoubleValue
-50.014

@<SCITEGIC>MOL_PROPERTY
W(PB)
SciTegic.value.DoubleValue
-52.190

@<SCITEGIC>MOL_PROPERTY
W(SA)
SciTegic.value.DoubleValue
2.176

@<SCITEGIC>MOL_PROPERTY
Valence
SciTegic.value.DoubleValue
4.500

@<SCITEGIC>MOL_PROPERTY
Coulomb
SciTegic.value.DoubleValue
69.634

@<SCITEGIC>MOL_PROPERTY
VdW
SciTegic.value.DoubleValue
-0.027

@<SCITEGIC>MOL_PROPERTY
VdW6
SciTegic.value.DoubleValue
-8.973

@<SCITEGIC>MOL_PROPERTY
VdW12
SciTegic.value.DoubleValue
8.946

@<SCITEGIC>MOL_PROPERTY
Bond
SciTegic.value.DoubleValue
0.259

@<SCITEGIC>MOL_PROPERTY
Angle
SciTegic.value.DoubleValue
1.561

@<SCITEGIC>MOL_PROPERTY
Pdih
SciTegic.value.DoubleValue
2.679

@<SCITEGIC>MOL_PROPERTY
Idih
SciTegic.value.DoubleValue
0.000

@<SCITEGIC>MOL_PROPERTY
Tether
SciTegic.value.DoubleValue
0.000

@<TRIPOS>MOLECULE
guest-s12_vm2.mol2 : vm2 ligand conformer 120
          26          25           1
SMALL
USER_CHARGES
 
@<TRIPOS>ATOM
       1    N1      19.535611   19.251425   25.732994 N.4        1 MOL1        -0.4857
       2    H1      19.653308   19.566119   26.708967 H          1 MOL1         0.3650
       3    H2      18.857252   18.476556   25.784565 H          1 MOL1         0.3650
       4    C1      20.870799   18.749551   25.204748 C.3        1 MOL1         0.0209
       5    H3      21.427676   18.379236   26.069282 H          1 MOL1         0.0967
       6    H4      21.422235   19.599640   24.796391 H          1 MOL1         0.0967
       7    C2      20.788831   17.604312   24.168446 C.3        1 MOL1        -0.1378
       8    H5      21.805932   17.235023   23.981882 H          1 MOL1         0.0993
       9    H6      20.239237   16.762401   24.609584 H          1 MOL1         0.0993
      10    C3      20.139990   17.983715   22.814605 C.3        1 MOL1        -0.1338
      11    H7      19.089691   18.253202   22.976299 H          1 MOL1         0.0993
      12    H8      20.126258   17.092593   22.172169 H          1 MOL1         0.0993
      13    C4      20.891830   19.122347   22.079276 C.3        1 MOL1        -0.1338
      14    H9      20.890953   20.036376   22.686994 H          1 MOL1         0.0993
      15    H10     21.945300   18.834212   21.959445 H          1 MOL1         0.0993
      16    C5      20.306279   19.442210   20.682912 C.3        1 MOL1        -0.1313
      17    H11     20.311219   18.536710   20.060164 H          1 MOL1         0.0993
      18    H12     20.965975   20.163691   20.180806 H          1 MOL1         0.0993
      19    C6      18.877406   20.029702   20.737938 C.3        1 MOL1        -0.2328
      20    H13     18.155215   19.300781   21.125626 H          1 MOL1         0.1004
      21    H14     18.543614   20.321219   19.733695 H          1 MOL1         0.1004
      22    H15     18.841551   20.922915   21.374942 H          1 MOL1         0.1004
      23    C7      18.997253   20.406738   24.896082 C.3        1 MOL1        -0.0781
      24    H16     19.723721   21.222150   24.903912 H          1 MOL1         0.0978
      25    H17     18.829998   20.072756   23.871449 H          1 MOL1         0.0978
      26    H18     18.054776   20.750566   25.328003 H          1 MOL1         0.0978
@<TRIPOS>BOND
    1     1     2    1
    2     1     3    1
    3     1     4    1
    4     4     5    1
    5     4     6    1
    6     4     7    1
    7     7     8    1
    8     7     9    1
    9     7    10    1
   10    10    11    1
   11    10    12    1
   12    10    13    1
   13    13    14    1
   14    13    15    1
   15    13    16    1
   16    16    17    1
   17    16    18    1
   18    16    19    1
   19    19    20    1
   20    19    21    1
   21    19    22    1
   22     1    23    1
   23    23    24    1
   24    23    25    1
   25    23    26    1
@<TRIPOS>SUBSTRUCTURE
       1 MOL1            1 RESIDUE      1      MOL     
@<SCITEGIC>MOL_PROPERTY
VM2 Rank
SciTegic.value.IntegerValue
120

@<SCITEGIC>MOL_PROPERTY
Conf_Id
SciTegic.value.IntegerValue
1591

@<SCITEGIC>MOL_PROPERTY
Probability
SciTegic.value.DoubleValue
0.03

@<SCITEGIC>MOL_PROPERTY
Sum Probability
SciTegic.value.DoubleValue
99.25

@<SCITEGIC>MOL_PROPERTY
Delta G
SciTegic.value.DoubleValue
3.229

@<SCITEGIC>MOL_PROPERTY
G
SciTegic.value.DoubleValue
78.695

@<SCITEGIC>MOL_PROPERTY
E
SciTegic.value.DoubleValue
45.567

@<SCITEGIC>MOL_PROPERTY
-TS
SciTegic.value.DoubleValue
33.127

@<SCITEGIC>MOL_PROPERTY
U+W
SciTegic.value.DoubleValue
24.106

@<SCITEGIC>MOL_PROPERTY
U
SciTegic.value.DoubleValue
74.177

@<SCITEGIC>MOL_PROPERTY
W
SciTegic.value.DoubleValue
-50.072

@<SCITEGIC>MOL_PROPERTY
W(PB)
SciTegic.value.DoubleValue
-52.225

@<SCITEGIC>MOL_PROPERTY
W(SA)
SciTegic.value.DoubleValue
2.153

@<SCITEGIC>MOL_PROPERTY
Valence
SciTegic.value.DoubleValue
4.524

@<SCITEGIC>MOL_PROPERTY
Coulomb
SciTegic.value.DoubleValue
69.761

@<SCITEGIC>MOL_PROPERTY
VdW
SciTegic.value.DoubleValue
-0.108

@<SCITEGIC>MOL_PROPERTY
VdW6
SciTegic.value.DoubleValue
-9.142

@<SCITEGIC>MOL_PROPERTY
VdW12
SciTegic.value.DoubleValue
9.034

@<SCITEGIC>MOL_PROPERTY
Bond
SciTegic.value.DoubleValue
0.254

@<SCITEGIC>MOL_PROPERTY
Angle
SciTegic.value.DoubleValue
1.400

@<SCITEGIC>MOL_PROPERTY
Pdih
SciTegic.value.DoubleValue
2.871

@<SCITEGIC>MOL_PROPERTY
Idih
SciTegic.value.DoubleValue
0.000

@<SCITEGIC>MOL_PROPERTY
Tether
SciTegic.value.DoubleValue
0.000

@<TRIPOS>MOLECULE
guest-s12_vm2.mol2 : vm2 ligand conformer 121
          26          25           1
SMALL
USER_CHARGES
 
@<TRIPOS>ATOM
       1    N1      19.172777   18.500661   25.769212 N.4        1 MOL1        -0.4857
       2    H1      19.608155   17.578229   25.924062 H          1 MOL1         0.3650
       3    H2      18.156102   18.322932   25.794496 H          1 MOL1         0.3650
       4    C1      19.560066   19.042498   24.403353 C.3        1 MOL1         0.0209
       5    H3      19.130016   20.042098   24.302716 H          1 MOL1         0.0967
       6    H4      19.095120   18.392255   23.659044 H          1 MOL1         0.0967
       7    C2      21.079012   19.093732   24.140726 C.3        1 MOL1        -0.1378
       8    H5      21.562462   19.695052   24.921136 H          1 MOL1         0.0993
       9    H6      21.496322   18.081789   24.226480 H          1 MOL1         0.0993
      10    C3      21.454626   19.692707   22.761672 C.3        1 MOL1        -0.1338
      11    H7      22.551435   19.729294   22.704923 H          1 MOL1         0.0993
      12    H8      21.119601   20.737294   22.698681 H          1 MOL1         0.0993
      13    C4      20.935161   18.886899   21.542035 C.3        1 MOL1        -0.1338
      14    H9      21.659421   18.997090   20.722947 H          1 MOL1         0.0993
      15    H10     20.910011   17.814695   21.780821 H          1 MOL1         0.0993
      16    C5      19.553466   19.357285   21.025275 C.3        1 MOL1        -0.1313
      17    H11     19.604274   20.421211   20.754500 H          1 MOL1         0.0993
      18    H12     18.792704   19.271333   21.809879 H          1 MOL1         0.0993
      19    C6      19.099436   18.542151   19.795571 C.3        1 MOL1        -0.2328
      20    H13     19.815344   18.641148   18.969205 H          1 MOL1         0.1004
      21    H14     18.122341   18.891846   19.437756 H          1 MOL1         0.1004
      22    H15     19.006180   17.476227   20.041131 H          1 MOL1         0.1004
      23    C7      19.553455   19.474066   26.879156 C.3        1 MOL1        -0.0781
      24    H16     19.064959   20.433894   26.697687 H          1 MOL1         0.0978
      25    H17     19.223854   19.068369   27.838245 H          1 MOL1         0.0978
      26    H18     20.637174   19.605682   26.890046 H          1 MOL1         0.0978
@<TRIPOS>BOND
    1     1     2    1
    2     1     3    1
    3     1     4    1
    4     4     5    1
    5     4     6    1
    6     4     7    1
    7     7     8    1
    8     7     9    1
    9     7    10    1
   10    10    11    1
   11    10    12    1
   12    10    13    1
   13    13    14    1
   14    13    15    1
   15    13    16    1
   16    16    17    1
   17    16    18    1
   18    16    19    1
   19    19    20    1
   20    19    21    1
   21    19    22    1
   22     1    23    1
   23    23    24    1
   24    23    25    1
   25    23    26    1
@<TRIPOS>SUBSTRUCTURE
       1 MOL1            1 RESIDUE      1      MOL     
@<SCITEGIC>MOL_PROPERTY
VM2 Rank
SciTegic.value.IntegerValue
121

@<SCITEGIC>MOL_PROPERTY
Conf_Id
SciTegic.value.IntegerValue
766

@<SCITEGIC>MOL_PROPERTY
Probability
SciTegic.value.DoubleValue
0.03

@<SCITEGIC>MOL_PROPERTY
Sum Probability
SciTegic.value.DoubleValue
99.28

@<SCITEGIC>MOL_PROPERTY
Delta G
SciTegic.value.DoubleValue
3.313

@<SCITEGIC>MOL_PROPERTY
G
SciTegic.value.DoubleValue
78.779

@<SCITEGIC>MOL_PROPERTY
E
SciTegic.value.DoubleValue
46.276

@<SCITEGIC>MOL_PROPERTY
-TS
SciTegic.value.DoubleValue
32.503

@<SCITEGIC>MOL_PROPERTY
U+W
SciTegic.value.DoubleValue
24.814

@<SCITEGIC>MOL_PROPERTY
U
SciTegic.value.DoubleValue
74.475

@<SCITEGIC>MOL_PROPERTY
W
SciTegic.value.DoubleValue
-49.660

@<SCITEGIC>MOL_PROPERTY
W(PB)
SciTegic.value.DoubleValue
-51.927

@<SCITEGIC>MOL_PROPERTY
W(SA)
SciTegic.value.DoubleValue
2.267

@<SCITEGIC>MOL_PROPERTY
Valence
SciTegic.value.DoubleValue
4.600

@<SCITEGIC>MOL_PROPERTY
Coulomb
SciTegic.value.DoubleValue
69.381

@<SCITEGIC>MOL_PROPERTY
VdW
SciTegic.value.DoubleValue
0.493

@<SCITEGIC>MOL_PROPERTY
VdW6
SciTegic.value.DoubleValue
-7.465

@<SCITEGIC>MOL_PROPERTY
VdW12
SciTegic.value.DoubleValue
7.959

@<SCITEGIC>MOL_PROPERTY
Bond
SciTegic.value.DoubleValue
0.243

@<SCITEGIC>MOL_PROPERTY
Angle
SciTegic.value.DoubleValue
1.200

@<SCITEGIC>MOL_PROPERTY
Pdih
SciTegic.value.DoubleValue
3.158

@<SCITEGIC>MOL_PROPERTY
Idih
SciTegic.value.DoubleValue
0.000

@<SCITEGIC>MOL_PROPERTY
Tether
SciTegic.value.DoubleValue
0.000

@<TRIPOS>MOLECULE
guest-s12_vm2.mol2 : vm2 ligand conformer 122
          26          25           1
SMALL
USER_CHARGES
 
@<TRIPOS>ATOM
       1    N1      20.472899   18.456298   25.772954 N.4        1 MOL1        -0.4857
       2    H1      21.104220   17.903638   25.173603 H          1 MOL1         0.3650
       3    H2      20.407626   17.922809   26.654288 H          1 MOL1         0.3650
       4    C1      19.092974   18.551679   25.141555 C.3        1 MOL1         0.0209
       5    H3      18.590779   19.433788   25.546498 H          1 MOL1         0.0967
       6    H4      18.535544   17.671296   25.471558 H          1 MOL1         0.0967
       7    C2      19.068691   18.579737   23.596993 C.3        1 MOL1        -0.1378
       8    H5      19.550193   17.670536   23.215249 H          1 MOL1         0.0993
       9    H6      18.020297   18.535331   23.273811 H          1 MOL1         0.0993
      10    C3      19.734633   19.834499   22.980572 C.3        1 MOL1        -0.1338
      11    H7      20.814461   19.818615   23.173069 H          1 MOL1         0.0993
      12    H8      19.345122   20.730615   23.483017 H          1 MOL1         0.0993
      13    C4      19.485113   19.978905   21.456983 C.3        1 MOL1        -0.1338
      14    H9      18.408365   20.109874   21.281827 H          1 MOL1         0.0993
      15    H10     19.960486   20.905833   21.107654 H          1 MOL1         0.0993
      16    C5      19.991971   18.797597   20.590480 C.3        1 MOL1        -0.1313
      17    H11     19.751119   19.007027   19.538869 H          1 MOL1         0.0993
      18    H12     19.447341   17.878582   20.845454 H          1 MOL1         0.0993
      19    C6      21.513326   18.553344   20.712795 C.3        1 MOL1        -0.2328
      20    H13     22.079267   19.464907   20.481089 H          1 MOL1         0.1004
      21    H14     21.834738   17.771631   20.012462 H          1 MOL1         0.1004
      22    H15     21.788510   18.224808   21.722616 H          1 MOL1         0.1004
      23    C7      21.048393   19.837941   26.064668 C.3        1 MOL1        -0.0781
      24    H16     20.373359   20.371004   26.737700 H          1 MOL1         0.0978
      25    H17     22.025467   19.723961   26.539418 H          1 MOL1         0.0978
      26    H18     21.156414   20.396344   25.134142 H          1 MOL1         0.0978
@<TRIPOS>BOND
    1     1     2    1
    2     1     3    1
    3     1     4    1
    4     4     5    1
    5     4     6    1
    6     4     7    1
    7     7     8    1
    8     7     9    1
    9     7    10    1
   10    10    11    1
   11    10    12    1
   12    10    13    1
   13    13    14    1
   14    13    15    1
   15    13    16    1
   16    16    17    1
   17    16    18    1
   18    16    19    1
   19    19    20    1
   20    19    21    1
   21    19    22    1
   22     1    23    1
   23    23    24    1
   24    23    25    1
   25    23    26    1
@<TRIPOS>SUBSTRUCTURE
       1 MOL1            1 RESIDUE      1      MOL     
@<SCITEGIC>MOL_PROPERTY
VM2 Rank
SciTegic.value.IntegerValue
122

@<SCITEGIC>MOL_PROPERTY
Conf_Id
SciTegic.value.IntegerValue
221

@<SCITEGIC>MOL_PROPERTY
Probability
SciTegic.value.DoubleValue
0.03

@<SCITEGIC>MOL_PROPERTY
Sum Probability
SciTegic.value.DoubleValue
99.30

@<SCITEGIC>MOL_PROPERTY
Delta G
SciTegic.value.DoubleValue
3.330

@<SCITEGIC>MOL_PROPERTY
G
SciTegic.value.DoubleValue
78.796

@<SCITEGIC>MOL_PROPERTY
E
SciTegic.value.DoubleValue
45.857

@<SCITEGIC>MOL_PROPERTY
-TS
SciTegic.value.DoubleValue
32.940

@<SCITEGIC>MOL_PROPERTY
U+W
SciTegic.value.DoubleValue
24.395

@<SCITEGIC>MOL_PROPERTY
U
SciTegic.value.DoubleValue
74.343

@<SCITEGIC>MOL_PROPERTY
W
SciTegic.value.DoubleValue
-49.948

@<SCITEGIC>MOL_PROPERTY
W(PB)
SciTegic.value.DoubleValue
-52.138

@<SCITEGIC>MOL_PROPERTY
W(SA)
SciTegic.value.DoubleValue
2.190

@<SCITEGIC>MOL_PROPERTY
Valence
SciTegic.value.DoubleValue
4.643

@<SCITEGIC>MOL_PROPERTY
Coulomb
SciTegic.value.DoubleValue
69.388

@<SCITEGIC>MOL_PROPERTY
VdW
SciTegic.value.DoubleValue
0.311

@<SCITEGIC>MOL_PROPERTY
VdW6
SciTegic.value.DoubleValue
-8.575

@<SCITEGIC>MOL_PROPERTY
VdW12
SciTegic.value.DoubleValue
8.886

@<SCITEGIC>MOL_PROPERTY
Bond
SciTegic.value.DoubleValue
0.266

@<SCITEGIC>MOL_PROPERTY
Angle
SciTegic.value.DoubleValue
1.426

@<SCITEGIC>MOL_PROPERTY
Pdih
SciTegic.value.DoubleValue
2.951

@<SCITEGIC>MOL_PROPERTY
Idih
SciTegic.value.DoubleValue
0.000

@<SCITEGIC>MOL_PROPERTY
Tether
SciTegic.value.DoubleValue
0.000

@<TRIPOS>MOLECULE
guest-s12_vm2.mol2 : vm2 ligand conformer 123
          26          25           1
SMALL
USER_CHARGES
 
@<TRIPOS>ATOM
       1    N1      19.682232   19.188369   25.937571 N.4        1 MOL1        -0.4857
       2    H1      19.941648   19.263912   26.933786 H          1 MOL1         0.3650
       3    H2      18.775930   18.696511   25.936175 H          1 MOL1         0.3650
       4    C1      20.731255   18.363676   25.207962 C.3        1 MOL1         0.0209
       5    H3      21.158715   17.680622   25.946465 H          1 MOL1         0.0967
       6    H4      21.528797   19.033309   24.878022 H          1 MOL1         0.0967
       7    C2      20.206809   17.514931   24.026039 C.3        1 MOL1        -0.1378
       8    H5      21.022892   16.868093   23.677752 H          1 MOL1         0.0993
       9    H6      19.423700   16.839076   24.394076 H          1 MOL1         0.0993
      10    C3      19.659227   18.318336   22.820278 C.3        1 MOL1        -0.1338
      11    H7      18.781898   18.901486   23.127392 H          1 MOL1         0.0993
      12    H8      19.296940   17.601591   22.071908 H          1 MOL1         0.0993
      13    C4      20.719121   19.245329   22.172021 C.3        1 MOL1        -0.1338
      14    H9      21.130810   19.924021   22.929915 H          1 MOL1         0.0993
      15    H10     21.563098   18.643176   21.808423 H          1 MOL1         0.0993
      16    C5      20.158796   20.103146   21.011693 C.3        1 MOL1        -0.1313
      17    H11     20.939756   20.802688   20.682142 H          1 MOL1         0.0993
      18    H12     19.326434   20.721860   21.375167 H          1 MOL1         0.0993
      19    C6      19.694209   19.268617   19.796308 C.3        1 MOL1        -0.2328
      20    H13     18.828967   18.641465   20.043993 H          1 MOL1         0.1004
      21    H14     20.499565   18.616947   19.433397 H          1 MOL1         0.1004
      22    H15     19.397448   19.926842   18.969518 H          1 MOL1         0.1004
      23    C7      19.556352   20.587594   25.345129 C.3        1 MOL1        -0.0781
      24    H16     19.244036   20.519122   24.302447 H          1 MOL1         0.0978
      25    H17     18.812966   21.150007   25.914429 H          1 MOL1         0.0978
      26    H18     20.523912   21.090221   25.407683 H          1 MOL1         0.0978
@<TRIPOS>BOND
    1     1     2    1
    2     1     3    1
    3     1     4    1
    4     4     5    1
    5     4     6    1
    6     4     7    1
    7     7     8    1
    8     7     9    1
    9     7    10    1
   10    10    11    1
   11    10    12    1
   12    10    13    1
   13    13    14    1
   14    13    15    1
   15    13    16    1
   16    16    17    1
   17    16    18    1
   18    16    19    1
   19    19    20    1
   20    19    21    1
   21    19    22    1
   22     1    23    1
   23    23    24    1
   24    23    25    1
   25    23    26    1
@<TRIPOS>SUBSTRUCTURE
       1 MOL1            1 RESIDUE      1      MOL     
@<SCITEGIC>MOL_PROPERTY
VM2 Rank
SciTegic.value.IntegerValue
123

@<SCITEGIC>MOL_PROPERTY
Conf_Id
SciTegic.value.IntegerValue
961

@<SCITEGIC>MOL_PROPERTY
Probability
SciTegic.value.DoubleValue
0.03

@<SCITEGIC>MOL_PROPERTY
Sum Probability
SciTegic.value.DoubleValue
99.33

@<SCITEGIC>MOL_PROPERTY
Delta G
SciTegic.value.DoubleValue
3.337

@<SCITEGIC>MOL_PROPERTY
G
SciTegic.value.DoubleValue
78.803

@<SCITEGIC>MOL_PROPERTY
E
SciTegic.value.DoubleValue
45.757

@<SCITEGIC>MOL_PROPERTY
-TS
SciTegic.value.DoubleValue
33.046

@<SCITEGIC>MOL_PROPERTY
U+W
SciTegic.value.DoubleValue
24.295

@<SCITEGIC>MOL_PROPERTY
U
SciTegic.value.DoubleValue
74.192

@<SCITEGIC>MOL_PROPERTY
W
SciTegic.value.DoubleValue
-49.897

@<SCITEGIC>MOL_PROPERTY
W(PB)
SciTegic.value.DoubleValue
-52.091

@<SCITEGIC>MOL_PROPERTY
W(SA)
SciTegic.value.DoubleValue
2.194

@<SCITEGIC>MOL_PROPERTY
Valence
SciTegic.value.DoubleValue
4.602

@<SCITEGIC>MOL_PROPERTY
Coulomb
SciTegic.value.DoubleValue
69.486

@<SCITEGIC>MOL_PROPERTY
VdW
SciTegic.value.DoubleValue
0.104

@<SCITEGIC>MOL_PROPERTY
VdW6
SciTegic.value.DoubleValue
-8.802

@<SCITEGIC>MOL_PROPERTY
VdW12
SciTegic.value.DoubleValue
8.906

@<SCITEGIC>MOL_PROPERTY
Bond
SciTegic.value.DoubleValue
0.257

@<SCITEGIC>MOL_PROPERTY
Angle
SciTegic.value.DoubleValue
1.462

@<SCITEGIC>MOL_PROPERTY
Pdih
SciTegic.value.DoubleValue
2.883

@<SCITEGIC>MOL_PROPERTY
Idih
SciTegic.value.DoubleValue
0.000

@<SCITEGIC>MOL_PROPERTY
Tether
SciTegic.value.DoubleValue
0.000

@<TRIPOS>MOLECULE
guest-s12_vm2.mol2 : vm2 ligand conformer 124
          26          25           1
SMALL
USER_CHARGES
 
@<TRIPOS>ATOM
       1    N1      20.202884   19.241277   25.955940 N.4        1 MOL1        -0.4857
       2    H1      21.187336   18.941479   26.021412 H          1 MOL1         0.3650
       3    H2      19.864566   19.256101   26.931014 H          1 MOL1         0.3650
       4    C1      19.394504   18.227914   25.160633 C.3        1 MOL1         0.0209
       5    H3      18.503822   18.726070   24.770931 H          1 MOL1         0.0967
       6    H4      19.062308   17.467726   25.872273 H          1 MOL1         0.0967
       7    C2      20.160096   17.510157   24.024388 C.3        1 MOL1        -0.1378
       8    H5      21.035206   17.002669   24.451150 H          1 MOL1         0.0993
       9    H6      19.516914   16.715153   23.624411 H          1 MOL1         0.0993
      10    C3      20.618316   18.415699   22.854265 C.3        1 MOL1        -0.1338
      11    H7      21.168688   17.791642   22.138249 H          1 MOL1         0.0993
      12    H8      21.336945   19.160954   23.217938 H          1 MOL1         0.0993
      13    C4      19.441951   19.115544   22.126732 C.3        1 MOL1        -0.1338
      14    H9      18.763738   18.358767   21.709113 H          1 MOL1         0.0993
      15    H10     18.850215   19.692259   22.849063 H          1 MOL1         0.0993
      16    C5      19.898519   20.076714   21.002513 C.3        1 MOL1        -0.1313
      17    H11     20.562003   20.847426   21.419097 H          1 MOL1         0.0993
      18    H12     19.018027   20.607425   20.614002 H          1 MOL1         0.0993
      19    C6      20.605427   19.361246   19.828701 C.3        1 MOL1        -0.2328
      20    H13     21.559524   18.919069   20.140936 H          1 MOL1         0.1004
      21    H14     20.821063   20.071536   19.020063 H          1 MOL1         0.1004
      22    H15     19.974967   18.563587   19.414886 H          1 MOL1         0.1004
      23    C7      20.086303   20.641449   25.363830 C.3        1 MOL1        -0.0781
      24    H16     19.035556   20.939056   25.354984 H          1 MOL1         0.0978
      25    H17     20.659909   21.337641   25.979723 H          1 MOL1         0.0978
      26    H18     20.478155   20.644512   24.346058 H          1 MOL1         0.0978
@<TRIPOS>BOND
    1     1     2    1
    2     1     3    1
    3     1     4    1
    4     4     5    1
    5     4     6    1
    6     4     7    1
    7     7     8    1
    8     7     9    1
    9     7    10    1
   10    10    11    1
   11    10    12    1
   12    10    13    1
   13    13    14    1
   14    13    15    1
   15    13    16    1
   16    16    17    1
   17    16    18    1
   18    16    19    1
   19    19    20    1
   20    19    21    1
   21    19    22    1
   22     1    23    1
   23    23    24    1
   24    23    25    1
   25    23    26    1
@<TRIPOS>SUBSTRUCTURE
       1 MOL1            1 RESIDUE      1      MOL     
@<SCITEGIC>MOL_PROPERTY
VM2 Rank
SciTegic.value.IntegerValue
124

@<SCITEGIC>MOL_PROPERTY
Conf_Id
SciTegic.value.IntegerValue
509

@<SCITEGIC>MOL_PROPERTY
Probability
SciTegic.value.DoubleValue
0.03

@<SCITEGIC>MOL_PROPERTY
Sum Probability
SciTegic.value.DoubleValue
99.35

@<SCITEGIC>MOL_PROPERTY
Delta G
SciTegic.value.DoubleValue
3.344

@<SCITEGIC>MOL_PROPERTY
G
SciTegic.value.DoubleValue
78.810

@<SCITEGIC>MOL_PROPERTY
E
SciTegic.value.DoubleValue
45.763

@<SCITEGIC>MOL_PROPERTY
-TS
SciTegic.value.DoubleValue
33.046

@<SCITEGIC>MOL_PROPERTY
U+W
SciTegic.value.DoubleValue
24.301

@<SCITEGIC>MOL_PROPERTY
U
SciTegic.value.DoubleValue
74.192

@<SCITEGIC>MOL_PROPERTY
W
SciTegic.value.DoubleValue
-49.890

@<SCITEGIC>MOL_PROPERTY
W(PB)
SciTegic.value.DoubleValue
-52.099

@<SCITEGIC>MOL_PROPERTY
W(SA)
SciTegic.value.DoubleValue
2.209

@<SCITEGIC>MOL_PROPERTY
Valence
SciTegic.value.DoubleValue
4.602

@<SCITEGIC>MOL_PROPERTY
Coulomb
SciTegic.value.DoubleValue
69.486

@<SCITEGIC>MOL_PROPERTY
VdW
SciTegic.value.DoubleValue
0.104

@<SCITEGIC>MOL_PROPERTY
VdW6
SciTegic.value.DoubleValue
-8.802

@<SCITEGIC>MOL_PROPERTY
VdW12
SciTegic.value.DoubleValue
8.907

@<SCITEGIC>MOL_PROPERTY
Bond
SciTegic.value.DoubleValue
0.257

@<SCITEGIC>MOL_PROPERTY
Angle
SciTegic.value.DoubleValue
1.462

@<SCITEGIC>MOL_PROPERTY
Pdih
SciTegic.value.DoubleValue
2.883

@<SCITEGIC>MOL_PROPERTY
Idih
SciTegic.value.DoubleValue
0.000

@<SCITEGIC>MOL_PROPERTY
Tether
SciTegic.value.DoubleValue
0.000

@<TRIPOS>MOLECULE
guest-s12_vm2.mol2 : vm2 ligand conformer 125
          26          25           1
SMALL
USER_CHARGES
 
@<TRIPOS>ATOM
       1    N1      19.078763   18.557823   25.699564 N.4        1 MOL1        -0.4857
       2    H1      19.250010   17.556147   25.521687 H          1 MOL1         0.3650
       3    H2      18.058613   18.633253   25.839160 H          1 MOL1         0.3650
       4    C1      19.489458   19.384037   24.492111 C.3        1 MOL1         0.0209
       5    H3      19.332745   20.437389   24.737502 H          1 MOL1         0.0967
       6    H4      18.808613   19.124862   23.679940 H          1 MOL1         0.0967
       7    C2      20.948559   19.166632   24.034028 C.3        1 MOL1        -0.1378
       8    H5      21.617657   19.489734   24.841899 H          1 MOL1         0.0993
       9    H6      21.144340   18.097507   23.878674 H          1 MOL1         0.0993
      10    C3      21.307174   19.964813   22.754989 C.3        1 MOL1        -0.1338
      11    H7      22.384594   20.179761   22.777192 H          1 MOL1         0.0993
      12    H8      20.809036   20.944217   22.770337 H          1 MOL1         0.0993
      13    C4      21.004570   19.232932   21.421330 C.3        1 MOL1        -0.1338
      14    H9      21.363059   19.863951   20.596248 H          1 MOL1         0.0993
      15    H10     21.591730   18.305511   21.371806 H          1 MOL1         0.0993
      16    C5      19.510951   18.906849   21.189568 C.3        1 MOL1        -0.1313
      17    H11     18.902920   19.809021   21.344765 H          1 MOL1         0.0993
      18    H12     19.174256   18.157435   21.917653 H          1 MOL1         0.0993
      19    C6      19.261349   18.360178   19.767656 C.3        1 MOL1        -0.2328
      20    H13     19.836879   17.442128   19.591090 H          1 MOL1         0.1004
      21    H14     19.548501   19.095701   19.004937 H          1 MOL1         0.1004
      22    H15     18.198904   18.124435   19.623951 H          1 MOL1         0.1004
      23    C7      19.807176   19.016734   26.957755 C.3        1 MOL1        -0.0781
      24    H16     19.458083   18.426351   27.807845 H          1 MOL1         0.0978
      25    H17     20.881425   18.871847   26.827235 H          1 MOL1         0.0978
      26    H18     19.593593   20.073776   27.130582 H          1 MOL1         0.0978
@<TRIPOS>BOND
    1     1     2    1
    2     1     3    1
    3     1     4    1
    4     4     5    1
    5     4     6    1
    6     4     7    1
    7     7     8    1
    8     7     9    1
    9     7    10    1
   10    10    11    1
   11    10    12    1
   12    10    13    1
   13    13    14    1
   14    13    15    1
   15    13    16    1
   16    16    17    1
   17    16    18    1
   18    16    19    1
   19    19    20    1
   20    19    21    1
   21    19    22    1
   22     1    23    1
   23    23    24    1
   24    23    25    1
   25    23    26    1
@<TRIPOS>SUBSTRUCTURE
       1 MOL1            1 RESIDUE      1      MOL     
@<SCITEGIC>MOL_PROPERTY
VM2 Rank
SciTegic.value.IntegerValue
125

@<SCITEGIC>MOL_PROPERTY
Conf_Id
SciTegic.value.IntegerValue
554

@<SCITEGIC>MOL_PROPERTY
Probability
SciTegic.value.DoubleValue
0.02

@<SCITEGIC>MOL_PROPERTY
Sum Probability
SciTegic.value.DoubleValue
99.38

@<SCITEGIC>MOL_PROPERTY
Delta G
SciTegic.value.DoubleValue
3.363

@<SCITEGIC>MOL_PROPERTY
G
SciTegic.value.DoubleValue
78.829

@<SCITEGIC>MOL_PROPERTY
E
SciTegic.value.DoubleValue
46.144

@<SCITEGIC>MOL_PROPERTY
-TS
SciTegic.value.DoubleValue
32.685

@<SCITEGIC>MOL_PROPERTY
U+W
SciTegic.value.DoubleValue
24.682

@<SCITEGIC>MOL_PROPERTY
U
SciTegic.value.DoubleValue
74.467

@<SCITEGIC>MOL_PROPERTY
W
SciTegic.value.DoubleValue
-49.785

@<SCITEGIC>MOL_PROPERTY
W(PB)
SciTegic.value.DoubleValue
-52.031

@<SCITEGIC>MOL_PROPERTY
W(SA)
SciTegic.value.DoubleValue
2.246

@<SCITEGIC>MOL_PROPERTY
Valence
SciTegic.value.DoubleValue
4.429

@<SCITEGIC>MOL_PROPERTY
Coulomb
SciTegic.value.DoubleValue
69.610

@<SCITEGIC>MOL_PROPERTY
VdW
SciTegic.value.DoubleValue
0.428

@<SCITEGIC>MOL_PROPERTY
VdW6
SciTegic.value.DoubleValue
-7.654

@<SCITEGIC>MOL_PROPERTY
VdW12
SciTegic.value.DoubleValue
8.082

@<SCITEGIC>MOL_PROPERTY
Bond
SciTegic.value.DoubleValue
0.236

@<SCITEGIC>MOL_PROPERTY
Angle
SciTegic.value.DoubleValue
1.210

@<SCITEGIC>MOL_PROPERTY
Pdih
SciTegic.value.DoubleValue
2.984

@<SCITEGIC>MOL_PROPERTY
Idih
SciTegic.value.DoubleValue
0.000

@<SCITEGIC>MOL_PROPERTY
Tether
SciTegic.value.DoubleValue
0.000

@<TRIPOS>MOLECULE
guest-s12_vm2.mol2 : vm2 ligand conformer 126
          26          25           1
SMALL
USER_CHARGES
 
@<TRIPOS>ATOM
       1    N1      19.700267   18.440671   26.018799 N.4        1 MOL1        -0.4857
       2    H1      20.525175   17.844224   26.187942 H          1 MOL1         0.3650
       3    H2      18.959218   17.799449   25.695669 H          1 MOL1         0.3650
       4    C1      20.008123   19.467133   24.947115 C.3        1 MOL1         0.0209
       5    H3      20.800406   20.118513   25.324575 H          1 MOL1         0.0967
       6    H4      19.110133   20.070810   24.793268 H          1 MOL1         0.0967
       7    C2      20.445599   18.840313   23.610898 C.3        1 MOL1        -0.1378
       8    H5      21.337925   18.221884   23.775654 H          1 MOL1         0.0993
       9    H6      19.656815   18.169471   23.252599 H          1 MOL1         0.0993
      10    C3      20.758368   19.927616   22.554755 C.3        1 MOL1        -0.1338
      11    H7      21.567876   20.559761   22.945752 H          1 MOL1         0.0993
      12    H8      19.893287   20.591803   22.420720 H          1 MOL1         0.0993
      13    C4      21.204186   19.350812   21.185440 C.3        1 MOL1        -0.1338
      14    H9      21.956402   20.028189   20.757829 H          1 MOL1         0.0993
      15    H10     21.717994   18.389711   21.324910 H          1 MOL1         0.0993
      16    C5      20.066990   19.200756   20.142458 C.3        1 MOL1        -0.1313
      17    H11     20.506097   18.854799   19.196223 H          1 MOL1         0.0993
      18    H12     19.628477   20.186045   19.930996 H          1 MOL1         0.0993
      19    C6      18.947601   18.220228   20.555759 C.3        1 MOL1        -0.2328
      20    H13     18.250532   18.061435   19.722830 H          1 MOL1         0.1004
      21    H14     18.365168   18.612310   21.398452 H          1 MOL1         0.1004
      22    H15     19.360349   17.243245   20.838554 H          1 MOL1         0.1004
      23    C7      19.276866   19.142473   27.301776 C.3        1 MOL1        -0.0781
      24    H16     18.384180   19.740647   27.106179 H          1 MOL1         0.0978
      25    H17     19.058278   18.392309   28.065068 H          1 MOL1         0.0978
      26    H18     20.088592   19.789218   27.642045 H          1 MOL1         0.0978
@<TRIPOS>BOND
    1     1     2    1
    2     1     3    1
    3     1     4    1
    4     4     5    1
    5     4     6    1
    6     4     7    1
    7     7     8    1
    8     7     9    1
    9     7    10    1
   10    10    11    1
   11    10    12    1
   12    10    13    1
   13    13    14    1
   14    13    15    1
   15    13    16    1
   16    16    17    1
   17    16    18    1
   18    16    19    1
   19    19    20    1
   20    19    21    1
   21    19    22    1
   22     1    23    1
   23    23    24    1
   24    23    25    1
   25    23    26    1
@<TRIPOS>SUBSTRUCTURE
       1 MOL1            1 RESIDUE      1      MOL     
@<SCITEGIC>MOL_PROPERTY
VM2 Rank
SciTegic.value.IntegerValue
126

@<SCITEGIC>MOL_PROPERTY
Conf_Id
SciTegic.value.IntegerValue
1339

@<SCITEGIC>MOL_PROPERTY
Probability
SciTegic.value.DoubleValue
0.02

@<SCITEGIC>MOL_PROPERTY
Sum Probability
SciTegic.value.DoubleValue
99.40

@<SCITEGIC>MOL_PROPERTY
Delta G
SciTegic.value.DoubleValue
3.371

@<SCITEGIC>MOL_PROPERTY
G
SciTegic.value.DoubleValue
78.837

@<SCITEGIC>MOL_PROPERTY
E
SciTegic.value.DoubleValue
46.334

@<SCITEGIC>MOL_PROPERTY
-TS
SciTegic.value.DoubleValue
32.503

@<SCITEGIC>MOL_PROPERTY
U+W
SciTegic.value.DoubleValue
24.872

@<SCITEGIC>MOL_PROPERTY
U
SciTegic.value.DoubleValue
74.070

@<SCITEGIC>MOL_PROPERTY
W
SciTegic.value.DoubleValue
-49.198

@<SCITEGIC>MOL_PROPERTY
W(PB)
SciTegic.value.DoubleValue
-51.475

@<SCITEGIC>MOL_PROPERTY
W(SA)
SciTegic.value.DoubleValue
2.277

@<SCITEGIC>MOL_PROPERTY
Valence
SciTegic.value.DoubleValue
4.690

@<SCITEGIC>MOL_PROPERTY
Coulomb
SciTegic.value.DoubleValue
69.115

@<SCITEGIC>MOL_PROPERTY
VdW
SciTegic.value.DoubleValue
0.266

@<SCITEGIC>MOL_PROPERTY
VdW6
SciTegic.value.DoubleValue
-6.809

@<SCITEGIC>MOL_PROPERTY
VdW12
SciTegic.value.DoubleValue
7.075

@<SCITEGIC>MOL_PROPERTY
Bond
SciTegic.value.DoubleValue
0.212

@<SCITEGIC>MOL_PROPERTY
Angle
SciTegic.value.DoubleValue
1.133

@<SCITEGIC>MOL_PROPERTY
Pdih
SciTegic.value.DoubleValue
3.345

@<SCITEGIC>MOL_PROPERTY
Idih
SciTegic.value.DoubleValue
0.000

@<SCITEGIC>MOL_PROPERTY
Tether
SciTegic.value.DoubleValue
0.000

@<TRIPOS>MOLECULE
guest-s12_vm2.mol2 : vm2 ligand conformer 127
          26          25           1
SMALL
USER_CHARGES
 
@<TRIPOS>ATOM
       1    N1      20.936315   18.748290   25.765724 N.4        1 MOL1        -0.4857
       2    H1      21.907820   19.027600   25.975595 H          1 MOL1         0.3650
       3    H2      20.984025   17.733846   25.584205 H          1 MOL1         0.3650
       4    C1      20.452519   19.482134   24.526106 C.3        1 MOL1         0.0209
       5    H3      21.226987   19.371614   23.765630 H          1 MOL1         0.0967
       6    H4      20.375058   20.543747   24.773700 H          1 MOL1         0.0967
       7    C2      19.103479   18.976698   23.968698 C.3        1 MOL1        -0.1378
       8    H5      19.139903   17.891233   23.807670 H          1 MOL1         0.0993
       9    H6      18.327960   19.151585   24.725482 H          1 MOL1         0.0993
      10    C3      18.680737   19.694794   22.662075 C.3        1 MOL1        -0.1338
      11    H7      18.967382   20.754780   22.705342 H          1 MOL1         0.0993
      12    H8      17.583259   19.686417   22.607286 H          1 MOL1         0.0993
      13    C4      19.218148   19.049358   21.358058 C.3        1 MOL1        -0.1338
      14    H9      18.836507   18.022407   21.274141 H          1 MOL1         0.0993
      15    H10     18.797540   19.600436   20.505496 H          1 MOL1         0.0993
      16    C5      20.759331   19.035118   21.233601 C.3        1 MOL1        -0.1313
      17    H11     21.189466   18.364184   21.988534 H          1 MOL1         0.0993
      18    H12     21.159119   20.040754   21.424829 H          1 MOL1         0.0993
      19    C6      21.213495   18.561306   19.836383 C.3        1 MOL1        -0.2328
      20    H13     22.309065   18.547309   19.768963 H          1 MOL1         0.1004
      21    H14     20.836968   19.228955   19.050467 H          1 MOL1         0.1004
      22    H15     20.850171   17.546882   19.626225 H          1 MOL1         0.1004
      23    C7      20.043976   19.042302   26.966355 C.3        1 MOL1        -0.0781
      24    H16     20.444888   18.529252   27.843352 H          1 MOL1         0.0978
      25    H17     20.026823   20.119562   27.145359 H          1 MOL1         0.0978
      26    H18     19.033018   18.684016   26.762315 H          1 MOL1         0.0978
@<TRIPOS>BOND
    1     1     2    1
    2     1     3    1
    3     1     4    1
    4     4     5    1
    5     4     6    1
    6     4     7    1
    7     7     8    1
    8     7     9    1
    9     7    10    1
   10    10    11    1
   11    10    12    1
   12    10    13    1
   13    13    14    1
   14    13    15    1
   15    13    16    1
   16    16    17    1
   17    16    18    1
   18    16    19    1
   19    19    20    1
   20    19    21    1
   21    19    22    1
   22     1    23    1
   23    23    24    1
   24    23    25    1
   25    23    26    1
@<TRIPOS>SUBSTRUCTURE
       1 MOL1            1 RESIDUE      1      MOL     
@<SCITEGIC>MOL_PROPERTY
VM2 Rank
SciTegic.value.IntegerValue
127

@<SCITEGIC>MOL_PROPERTY
Conf_Id
SciTegic.value.IntegerValue
1306

@<SCITEGIC>MOL_PROPERTY
Probability
SciTegic.value.DoubleValue
0.02

@<SCITEGIC>MOL_PROPERTY
Sum Probability
SciTegic.value.DoubleValue
99.43

@<SCITEGIC>MOL_PROPERTY
Delta G
SciTegic.value.DoubleValue
3.379

@<SCITEGIC>MOL_PROPERTY
G
SciTegic.value.DoubleValue
78.845

@<SCITEGIC>MOL_PROPERTY
E
SciTegic.value.DoubleValue
46.162

@<SCITEGIC>MOL_PROPERTY
-TS
SciTegic.value.DoubleValue
32.684

@<SCITEGIC>MOL_PROPERTY
U+W
SciTegic.value.DoubleValue
24.700

@<SCITEGIC>MOL_PROPERTY
U
SciTegic.value.DoubleValue
74.467

@<SCITEGIC>MOL_PROPERTY
W
SciTegic.value.DoubleValue
-49.767

@<SCITEGIC>MOL_PROPERTY
W(PB)
SciTegic.value.DoubleValue
-52.030

@<SCITEGIC>MOL_PROPERTY
W(SA)
SciTegic.value.DoubleValue
2.263

@<SCITEGIC>MOL_PROPERTY
Valence
SciTegic.value.DoubleValue
4.429

@<SCITEGIC>MOL_PROPERTY
Coulomb
SciTegic.value.DoubleValue
69.609

@<SCITEGIC>MOL_PROPERTY
VdW
SciTegic.value.DoubleValue
0.428

@<SCITEGIC>MOL_PROPERTY
VdW6
SciTegic.value.DoubleValue
-7.654

@<SCITEGIC>MOL_PROPERTY
VdW12
SciTegic.value.DoubleValue
8.081

@<SCITEGIC>MOL_PROPERTY
Bond
SciTegic.value.DoubleValue
0.236

@<SCITEGIC>MOL_PROPERTY
Angle
SciTegic.value.DoubleValue
1.210

@<SCITEGIC>MOL_PROPERTY
Pdih
SciTegic.value.DoubleValue
2.983

@<SCITEGIC>MOL_PROPERTY
Idih
SciTegic.value.DoubleValue
0.000

@<SCITEGIC>MOL_PROPERTY
Tether
SciTegic.value.DoubleValue
0.000

@<TRIPOS>MOLECULE
guest-s12_vm2.mol2 : vm2 ligand conformer 128
          26          25           1
SMALL
USER_CHARGES
 
@<TRIPOS>ATOM
       1    N1      20.416637   18.457592   25.957166 N.4        1 MOL1        -0.4857
       2    H1      21.412542   18.309356   25.731469 H          1 MOL1         0.3650
       3    H2      19.971734   17.531757   25.858739 H          1 MOL1         0.3650
       4    C1      19.799836   19.440459   24.982261 C.3        1 MOL1         0.0209
       5    H3      20.302350   20.402222   25.112574 H          1 MOL1         0.0967
       6    H4      18.747410   19.562687   25.250469 H          1 MOL1         0.0967
       7    C2      19.911479   18.992691   23.513601 C.3        1 MOL1        -0.1378
       8    H5      20.971305   18.860434   23.263141 H          1 MOL1         0.0993
       9    H6      19.418218   18.019514   23.389638 H          1 MOL1         0.0993
      10    C3      19.272939   20.027276   22.559358 C.3        1 MOL1        -0.1338
      11    H7      19.830062   20.972496   22.620448 H          1 MOL1         0.0993
      12    H8      18.254480   20.250793   22.906533 H          1 MOL1         0.0993
      13    C4      19.191912   19.571213   21.079267 C.3        1 MOL1        -0.1338
      14    H9      18.546549   18.686375   20.990959 H          1 MOL1         0.0993
      15    H10     18.681557   20.365506   20.516989 H          1 MOL1         0.0993
      16    C5      20.561628   19.305802   20.402352 C.3        1 MOL1        -0.1313
      17    H11     21.338929   19.940277   20.850541 H          1 MOL1         0.0993
      18    H12     20.495217   19.609910   19.348254 H          1 MOL1         0.0993
      19    C6      20.990313   17.820103   20.442198 C.3        1 MOL1        -0.2328
      20    H13     21.104363   17.449685   21.466710 H          1 MOL1         0.1004
      21    H14     21.952397   17.684583   19.931376 H          1 MOL1         0.1004
      22    H15     20.252383   17.185738   19.934188 H          1 MOL1         0.1004
      23    C7      20.263255   18.974865   27.380797 C.3        1 MOL1        -0.0781
      24    H16     19.201349   19.092282   27.607799 H          1 MOL1         0.0978
      25    H17     20.711277   18.258056   28.072608 H          1 MOL1         0.0978
      26    H18     20.769457   19.938659   27.469225 H          1 MOL1         0.0978
@<TRIPOS>BOND
    1     1     2    1
    2     1     3    1
    3     1     4    1
    4     4     5    1
    5     4     6    1
    6     4     7    1
    7     7     8    1
    8     7     9    1
    9     7    10    1
   10    10    11    1
   11    10    12    1
   12    10    13    1
   13    13    14    1
   14    13    15    1
   15    13    16    1
   16    16    17    1
   17    16    18    1
   18    16    19    1
   19    19    20    1
   20    19    21    1
   21    19    22    1
   22     1    23    1
   23    23    24    1
   24    23    25    1
   25    23    26    1
@<TRIPOS>SUBSTRUCTURE
       1 MOL1            1 RESIDUE      1      MOL     
@<SCITEGIC>MOL_PROPERTY
VM2 Rank
SciTegic.value.IntegerValue
128

@<SCITEGIC>MOL_PROPERTY
Conf_Id
SciTegic.value.IntegerValue
730

@<SCITEGIC>MOL_PROPERTY
Probability
SciTegic.value.DoubleValue
0.02

@<SCITEGIC>MOL_PROPERTY
Sum Probability
SciTegic.value.DoubleValue
99.45

@<SCITEGIC>MOL_PROPERTY
Delta G
SciTegic.value.DoubleValue
3.421

@<SCITEGIC>MOL_PROPERTY
G
SciTegic.value.DoubleValue
78.887

@<SCITEGIC>MOL_PROPERTY
E
SciTegic.value.DoubleValue
46.395

@<SCITEGIC>MOL_PROPERTY
-TS
SciTegic.value.DoubleValue
32.493

@<SCITEGIC>MOL_PROPERTY
U+W
SciTegic.value.DoubleValue
24.933

@<SCITEGIC>MOL_PROPERTY
U
SciTegic.value.DoubleValue
74.134

@<SCITEGIC>MOL_PROPERTY
W
SciTegic.value.DoubleValue
-49.201

@<SCITEGIC>MOL_PROPERTY
W(PB)
SciTegic.value.DoubleValue
-51.486

@<SCITEGIC>MOL_PROPERTY
W(SA)
SciTegic.value.DoubleValue
2.285

@<SCITEGIC>MOL_PROPERTY
Valence
SciTegic.value.DoubleValue
4.712

@<SCITEGIC>MOL_PROPERTY
Coulomb
SciTegic.value.DoubleValue
69.140

@<SCITEGIC>MOL_PROPERTY
VdW
SciTegic.value.DoubleValue
0.281

@<SCITEGIC>MOL_PROPERTY
VdW6
SciTegic.value.DoubleValue
-6.800

@<SCITEGIC>MOL_PROPERTY
VdW12
SciTegic.value.DoubleValue
7.081

@<SCITEGIC>MOL_PROPERTY
Bond
SciTegic.value.DoubleValue
0.212

@<SCITEGIC>MOL_PROPERTY
Angle
SciTegic.value.DoubleValue
1.171

@<SCITEGIC>MOL_PROPERTY
Pdih
SciTegic.value.DoubleValue
3.329

@<SCITEGIC>MOL_PROPERTY
Idih
SciTegic.value.DoubleValue
0.000

@<SCITEGIC>MOL_PROPERTY
Tether
SciTegic.value.DoubleValue
0.000

@<TRIPOS>MOLECULE
guest-s12_vm2.mol2 : vm2 ligand conformer 129
          26          25           1
SMALL
USER_CHARGES
 
@<TRIPOS>ATOM
       1    N1      19.971385   18.618879   26.230984 N.4        1 MOL1        -0.4857
       2    H1      20.904519   18.201028   26.368282 H          1 MOL1         0.3650
       3    H2      19.404826   18.258997   27.015357 H          1 MOL1         0.3650
       4    C1      19.370085   18.136924   24.917650 C.3        1 MOL1         0.0209
       5    H3      18.384722   18.593973   24.797575 H          1 MOL1         0.0967
       6    H4      19.224865   17.059129   25.027430 H          1 MOL1         0.0967
       7    C2      20.227893   18.380828   23.655996 C.3        1 MOL1        -0.1378
       8    H5      21.294208   18.354925   23.916210 H          1 MOL1         0.0993
       9    H6      20.054758   17.541215   22.971334 H          1 MOL1         0.0993
      10    C3      19.875472   19.701677   22.925873 C.3        1 MOL1        -0.1338
      11    H7      19.957244   20.545190   23.621220 H          1 MOL1         0.0993
      12    H8      18.824059   19.678735   22.610144 H          1 MOL1         0.0993
      13    C4      20.786877   19.996746   21.706192 C.3        1 MOL1        -0.1338
      14    H9      20.495590   20.964591   21.275313 H          1 MOL1         0.0993
      15    H10     21.820735   20.123533   22.055887 H          1 MOL1         0.0993
      16    C5      20.766700   18.924962   20.586232 C.3        1 MOL1        -0.1313
      17    H11     21.171915   17.975529   20.960978 H          1 MOL1         0.0993
      18    H12     21.447067   19.244863   19.784652 H          1 MOL1         0.0993
      19    C6      19.362944   18.691891   19.982781 C.3        1 MOL1        -0.2328
      20    H13     19.419285   17.996560   19.135320 H          1 MOL1         0.1004
      21    H14     18.929362   19.631849   19.617518 H          1 MOL1         0.1004
      22    H15     18.674931   18.258928   20.719490 H          1 MOL1         0.1004
      23    C7      20.046644   20.138093   26.311292 C.3        1 MOL1        -0.0781
      24    H16     20.743177   20.503754   25.554651 H          1 MOL1         0.0978
      25    H17     19.052857   20.557230   26.139628 H          1 MOL1         0.0978
      26    H18     20.402375   20.425377   27.303253 H          1 MOL1         0.0978
@<TRIPOS>BOND
    1     1     2    1
    2     1     3    1
    3     1     4    1
    4     4     5    1
    5     4     6    1
    6     4     7    1
    7     7     8    1
    8     7     9    1
    9     7    10    1
   10    10    11    1
   11    10    12    1
   12    10    13    1
   13    13    14    1
   14    13    15    1
   15    13    16    1
   16    16    17    1
   17    16    18    1
   18    16    19    1
   19    19    20    1
   20    19    21    1
   21    19    22    1
   22     1    23    1
   23    23    24    1
   24    23    25    1
   25    23    26    1
@<TRIPOS>SUBSTRUCTURE
       1 MOL1            1 RESIDUE      1      MOL     
@<SCITEGIC>MOL_PROPERTY
VM2 Rank
SciTegic.value.IntegerValue
129

@<SCITEGIC>MOL_PROPERTY
Conf_Id
SciTegic.value.IntegerValue
1076

@<SCITEGIC>MOL_PROPERTY
Probability
SciTegic.value.DoubleValue
0.02

@<SCITEGIC>MOL_PROPERTY
Sum Probability
SciTegic.value.DoubleValue
99.47

@<SCITEGIC>MOL_PROPERTY
Delta G
SciTegic.value.DoubleValue
3.439

@<SCITEGIC>MOL_PROPERTY
G
SciTegic.value.DoubleValue
78.905

@<SCITEGIC>MOL_PROPERTY
E
SciTegic.value.DoubleValue
46.098

@<SCITEGIC>MOL_PROPERTY
-TS
SciTegic.value.DoubleValue
32.807

@<SCITEGIC>MOL_PROPERTY
U+W
SciTegic.value.DoubleValue
24.636

@<SCITEGIC>MOL_PROPERTY
U
SciTegic.value.DoubleValue
74.315

@<SCITEGIC>MOL_PROPERTY
W
SciTegic.value.DoubleValue
-49.679

@<SCITEGIC>MOL_PROPERTY
W(PB)
SciTegic.value.DoubleValue
-51.876

@<SCITEGIC>MOL_PROPERTY
W(SA)
SciTegic.value.DoubleValue
2.197

@<SCITEGIC>MOL_PROPERTY
Valence
SciTegic.value.DoubleValue
4.914

@<SCITEGIC>MOL_PROPERTY
Coulomb
SciTegic.value.DoubleValue
68.873

@<SCITEGIC>MOL_PROPERTY
VdW
SciTegic.value.DoubleValue
0.528

@<SCITEGIC>MOL_PROPERTY
VdW6
SciTegic.value.DoubleValue
-8.388

@<SCITEGIC>MOL_PROPERTY
VdW12
SciTegic.value.DoubleValue
8.915

@<SCITEGIC>MOL_PROPERTY
Bond
SciTegic.value.DoubleValue
0.278

@<SCITEGIC>MOL_PROPERTY
Angle
SciTegic.value.DoubleValue
1.571

@<SCITEGIC>MOL_PROPERTY
Pdih
SciTegic.value.DoubleValue
3.064

@<SCITEGIC>MOL_PROPERTY
Idih
SciTegic.value.DoubleValue
0.000

@<SCITEGIC>MOL_PROPERTY
Tether
SciTegic.value.DoubleValue
0.000

@<TRIPOS>MOLECULE
guest-s12_vm2.mol2 : vm2 ligand conformer 130
          26          25           1
SMALL
USER_CHARGES
 
@<TRIPOS>ATOM
       1    N1      20.330579   18.505248   26.041130 N.4        1 MOL1        -0.4857
       2    H1      21.206719   18.029424   25.775235 H          1 MOL1         0.3650
       3    H2      19.633555   17.753134   26.156519 H          1 MOL1         0.3650
       4    C1      19.897217   19.455785   24.943138 C.3        1 MOL1         0.0209
       5    H3      20.663056   20.229699   24.848124 H          1 MOL1         0.0967
       6    H4      18.965123   19.930747   25.259519 H          1 MOL1         0.0967
       7    C2      19.690184   18.762905   23.584162 C.3        1 MOL1        -0.1378
       8    H5      20.621478   18.268095   23.286770 H          1 MOL1         0.0993
       9    H6      18.932147   17.975565   23.690564 H          1 MOL1         0.0993
      10    C3      19.238558   19.771889   22.500891 C.3        1 MOL1        -0.1338
      11    H7      19.958504   20.598378   22.422988 H          1 MOL1         0.0993
      12    H8      18.292489   20.224281   22.829655 H          1 MOL1         0.0993
      13    C4      19.015789   19.126544   21.107916 C.3        1 MOL1        -0.1338
      14    H9      18.698828   18.080320   21.217994 H          1 MOL1         0.0993
      15    H10     18.173788   19.640552   20.623817 H          1 MOL1         0.0993
      16    C5      20.229998   19.217385   20.148236 C.3        1 MOL1        -0.1313
      17    H11     20.473480   20.272557   19.960801 H          1 MOL1         0.0993
      18    H12     19.937485   18.796301   19.176132 H          1 MOL1         0.0993
      19    C6      21.493089   18.481153   20.646081 C.3        1 MOL1        -0.2328
      20    H13     22.264507   18.472834   19.865224 H          1 MOL1         0.1004
      21    H14     21.268106   17.438817   20.906362 H          1 MOL1         0.1004
      22    H15     21.923449   18.977145   21.524643 H          1 MOL1         0.1004
      23    C7      20.512586   19.269092   27.345445 C.3        1 MOL1        -0.0781
      24    H16     19.565102   19.735933   27.623464 H          1 MOL1         0.0978
      25    H17     20.824429   18.573250   28.127558 H          1 MOL1         0.0978
      26    H18     21.277336   20.036771   27.208389 H          1 MOL1         0.0978
@<TRIPOS>BOND
    1     1     2    1
    2     1     3    1
    3     1     4    1
    4     4     5    1
    5     4     6    1
    6     4     7    1
    7     7     8    1
    8     7     9    1
    9     7    10    1
   10    10    11    1
   11    10    12    1
   12    10    13    1
   13    13    14    1
   14    13    15    1
   15    13    16    1
   16    16    17    1
   17    16    18    1
   18    16    19    1
   19    19    20    1
   20    19    21    1
   21    19    22    1
   22     1    23    1
   23    23    24    1
   24    23    25    1
   25    23    26    1
@<TRIPOS>SUBSTRUCTURE
       1 MOL1            1 RESIDUE      1      MOL     
@<SCITEGIC>MOL_PROPERTY
VM2 Rank
SciTegic.value.IntegerValue
130

@<SCITEGIC>MOL_PROPERTY
Conf_Id
SciTegic.value.IntegerValue
700

@<SCITEGIC>MOL_PROPERTY
Probability
SciTegic.value.DoubleValue
0.02

@<SCITEGIC>MOL_PROPERTY
Sum Probability
SciTegic.value.DoubleValue
99.49

@<SCITEGIC>MOL_PROPERTY
Delta G
SciTegic.value.DoubleValue
3.442

@<SCITEGIC>MOL_PROPERTY
G
SciTegic.value.DoubleValue
78.908

@<SCITEGIC>MOL_PROPERTY
E
SciTegic.value.DoubleValue
46.405

@<SCITEGIC>MOL_PROPERTY
-TS
SciTegic.value.DoubleValue
32.503

@<SCITEGIC>MOL_PROPERTY
U+W
SciTegic.value.DoubleValue
24.943

@<SCITEGIC>MOL_PROPERTY
U
SciTegic.value.DoubleValue
74.070

@<SCITEGIC>MOL_PROPERTY
W
SciTegic.value.DoubleValue
-49.127

@<SCITEGIC>MOL_PROPERTY
W(PB)
SciTegic.value.DoubleValue
-51.424

@<SCITEGIC>MOL_PROPERTY
W(SA)
SciTegic.value.DoubleValue
2.296

@<SCITEGIC>MOL_PROPERTY
Valence
SciTegic.value.DoubleValue
4.689

@<SCITEGIC>MOL_PROPERTY
Coulomb
SciTegic.value.DoubleValue
69.115

@<SCITEGIC>MOL_PROPERTY
VdW
SciTegic.value.DoubleValue
0.266

@<SCITEGIC>MOL_PROPERTY
VdW6
SciTegic.value.DoubleValue
-6.809

@<SCITEGIC>MOL_PROPERTY
VdW12
SciTegic.value.DoubleValue
7.076

@<SCITEGIC>MOL_PROPERTY
Bond
SciTegic.value.DoubleValue
0.212

@<SCITEGIC>MOL_PROPERTY
Angle
SciTegic.value.DoubleValue
1.132

@<SCITEGIC>MOL_PROPERTY
Pdih
SciTegic.value.DoubleValue
3.345

@<SCITEGIC>MOL_PROPERTY
Idih
SciTegic.value.DoubleValue
0.000

@<SCITEGIC>MOL_PROPERTY
Tether
SciTegic.value.DoubleValue
0.000

@<TRIPOS>MOLECULE
guest-s12_vm2.mol2 : vm2 ligand conformer 131
          26          25           1
SMALL
USER_CHARGES
 
@<TRIPOS>ATOM
       1    N1      19.632027   18.377134   25.929351 N.4        1 MOL1        -0.4857
       2    H1      20.261088   17.561406   25.868815 H          1 MOL1         0.3650
       3    H2      18.705087   18.031796   25.635642 H          1 MOL1         0.3650
       4    C1      20.103441   19.471644   24.993012 C.3        1 MOL1         0.0209
       5    H3      21.087829   19.802754   25.333341 H          1 MOL1         0.0967
       6    H4      19.408519   20.310597   25.080955 H          1 MOL1         0.0967
       7    C2      20.187959   19.021120   23.523385 C.3        1 MOL1        -0.1378
       8    H5      20.875742   18.169092   23.441225 H          1 MOL1         0.0993
       9    H6      19.197145   18.678517   23.200334 H          1 MOL1         0.0993
      10    C3      20.668617   20.170509   22.608755 C.3        1 MOL1        -0.1338
      11    H7      21.593688   20.593486   23.024791 H          1 MOL1         0.0993
      12    H8      19.928464   20.982609   22.623828 H          1 MOL1         0.0993
      13    C4      20.943954   19.750945   21.141312 C.3        1 MOL1        -0.1338
      14    H9      21.320741   20.636234   20.610446 H          1 MOL1         0.0993
      15    H10     21.759919   19.016027   21.104833 H          1 MOL1         0.0993
      16    C5      19.707396   19.218123   20.372024 C.3        1 MOL1        -0.1313
      17    H11     19.784535   19.536784   19.322967 H          1 MOL1         0.0993
      18    H12     18.788137   19.678674   20.759951 H          1 MOL1         0.0993
      19    C6      19.587069   17.676124   20.392630 C.3        1 MOL1        -0.2328
      20    H13     20.472093   17.208114   19.942371 H          1 MOL1         0.1004
      21    H14     18.710737   17.351975   19.816540 H          1 MOL1         0.1004
      22    H15     19.478799   17.283075   21.409305 H          1 MOL1         0.1004
      23    C7      19.577536   18.904400   27.356532 C.3        1 MOL1        -0.0781
      24    H16     19.236770   18.106687   28.020364 H          1 MOL1         0.0978
      25    H17     20.575119   19.232838   27.656397 H          1 MOL1         0.0978
      26    H18     18.881670   19.745002   27.402542 H          1 MOL1         0.0978
@<TRIPOS>BOND
    1     1     2    1
    2     1     3    1
    3     1     4    1
    4     4     5    1
    5     4     6    1
    6     4     7    1
    7     7     8    1
    8     7     9    1
    9     7    10    1
   10    10    11    1
   11    10    12    1
   12    10    13    1
   13    13    14    1
   14    13    15    1
   15    13    16    1
   16    16    17    1
   17    16    18    1
   18    16    19    1
   19    19    20    1
   20    19    21    1
   21    19    22    1
   22     1    23    1
   23    23    24    1
   24    23    25    1
   25    23    26    1
@<TRIPOS>SUBSTRUCTURE
       1 MOL1            1 RESIDUE      1      MOL     
@<SCITEGIC>MOL_PROPERTY
VM2 Rank
SciTegic.value.IntegerValue
131

@<SCITEGIC>MOL_PROPERTY
Conf_Id
SciTegic.value.IntegerValue
1346

@<SCITEGIC>MOL_PROPERTY
Probability
SciTegic.value.DoubleValue
0.02

@<SCITEGIC>MOL_PROPERTY
Sum Probability
SciTegic.value.DoubleValue
99.51

@<SCITEGIC>MOL_PROPERTY
Delta G
SciTegic.value.DoubleValue
3.452

@<SCITEGIC>MOL_PROPERTY
G
SciTegic.value.DoubleValue
78.918

@<SCITEGIC>MOL_PROPERTY
E
SciTegic.value.DoubleValue
46.425

@<SCITEGIC>MOL_PROPERTY
-TS
SciTegic.value.DoubleValue
32.493

@<SCITEGIC>MOL_PROPERTY
U+W
SciTegic.value.DoubleValue
24.963

@<SCITEGIC>MOL_PROPERTY
U
SciTegic.value.DoubleValue
74.134

@<SCITEGIC>MOL_PROPERTY
W
SciTegic.value.DoubleValue
-49.171

@<SCITEGIC>MOL_PROPERTY
W(PB)
SciTegic.value.DoubleValue
-51.475

@<SCITEGIC>MOL_PROPERTY
W(SA)
SciTegic.value.DoubleValue
2.304

@<SCITEGIC>MOL_PROPERTY
Valence
SciTegic.value.DoubleValue
4.712

@<SCITEGIC>MOL_PROPERTY
Coulomb
SciTegic.value.DoubleValue
69.140

@<SCITEGIC>MOL_PROPERTY
VdW
SciTegic.value.DoubleValue
0.281

@<SCITEGIC>MOL_PROPERTY
VdW6
SciTegic.value.DoubleValue
-6.800

@<SCITEGIC>MOL_PROPERTY
VdW12
SciTegic.value.DoubleValue
7.082

@<SCITEGIC>MOL_PROPERTY
Bond
SciTegic.value.DoubleValue
0.212

@<SCITEGIC>MOL_PROPERTY
Angle
SciTegic.value.DoubleValue
1.172

@<SCITEGIC>MOL_PROPERTY
Pdih
SciTegic.value.DoubleValue
3.329

@<SCITEGIC>MOL_PROPERTY
Idih
SciTegic.value.DoubleValue
0.000

@<SCITEGIC>MOL_PROPERTY
Tether
SciTegic.value.DoubleValue
0.000

@<TRIPOS>MOLECULE
guest-s12_vm2.mol2 : vm2 ligand conformer 132
          26          25           1
SMALL
USER_CHARGES
 
@<TRIPOS>ATOM
       1    N1      19.589621   18.366139   25.741795 N.4        1 MOL1        -0.4857
       2    H1      19.699442   17.850698   26.629422 H          1 MOL1         0.3650
       3    H2      19.126484   17.701539   25.103801 H          1 MOL1         0.3650
       4    C1      20.962589   18.742689   25.207824 C.3        1 MOL1         0.0209
       5    H3      21.661832   17.990726   25.582411 H          1 MOL1         0.0967
       6    H4      21.246692   19.705171   25.640503 H          1 MOL1         0.0967
       7    C2      21.088770   18.785945   23.668585 C.3        1 MOL1        -0.1378
       8    H5      22.144566   18.956228   23.419895 H          1 MOL1         0.0993
       9    H6      20.828509   17.801017   23.260662 H          1 MOL1         0.0993
      10    C3      20.228225   19.884890   22.998017 C.3        1 MOL1        -0.1338
      11    H7      20.392758   20.837573   23.520050 H          1 MOL1         0.0993
      12    H8      19.163030   19.650105   23.114511 H          1 MOL1         0.0993
      13    C4      20.549594   20.087492   21.494650 C.3        1 MOL1        -0.1338
      14    H9      19.922672   20.901927   21.106231 H          1 MOL1         0.0993
      15    H10     21.587355   20.434224   21.394406 H          1 MOL1         0.0993
      16    C5      20.353426   18.834415   20.603283 C.3        1 MOL1        -0.1313
      17    H11     21.052994   18.042356   20.902397 H          1 MOL1         0.0993
      18    H12     20.620175   19.095590   19.569653 H          1 MOL1         0.0993
      19    C6      18.907852   18.287458   20.620448 C.3        1 MOL1        -0.2328
      20    H13     18.634516   17.902992   21.610839 H          1 MOL1         0.1004
      21    H14     18.800600   17.461989   19.904946 H          1 MOL1         0.1004
      22    H15     18.187340   19.067763   20.343116 H          1 MOL1         0.1004
      23    C7      18.727922   19.600971   25.982399 C.3        1 MOL1        -0.0781
      24    H16     17.763240   19.288650   26.388475 H          1 MOL1         0.0978
      25    H17     19.232570   20.254712   26.697070 H          1 MOL1         0.0978
      26    H18     18.574712   20.132505   25.042529 H          1 MOL1         0.0978
@<TRIPOS>BOND
    1     1     2    1
    2     1     3    1
    3     1     4    1
    4     4     5    1
    5     4     6    1
    6     4     7    1
    7     7     8    1
    8     7     9    1
    9     7    10    1
   10    10    11    1
   11    10    12    1
   12    10    13    1
   13    13    14    1
   14    13    15    1
   15    13    16    1
   16    16    17    1
   17    16    18    1
   18    16    19    1
   19    19    20    1
   20    19    21    1
   21    19    22    1
   22     1    23    1
   23    23    24    1
   24    23    25    1
   25    23    26    1
@<TRIPOS>SUBSTRUCTURE
       1 MOL1            1 RESIDUE      1      MOL     
@<SCITEGIC>MOL_PROPERTY
VM2 Rank
SciTegic.value.IntegerValue
132

@<SCITEGIC>MOL_PROPERTY
Conf_Id
SciTegic.value.IntegerValue
1358

@<SCITEGIC>MOL_PROPERTY
Probability
SciTegic.value.DoubleValue
0.02

@<SCITEGIC>MOL_PROPERTY
Sum Probability
SciTegic.value.DoubleValue
99.53

@<SCITEGIC>MOL_PROPERTY
Delta G
SciTegic.value.DoubleValue
3.464

@<SCITEGIC>MOL_PROPERTY
G
SciTegic.value.DoubleValue
78.930

@<SCITEGIC>MOL_PROPERTY
E
SciTegic.value.DoubleValue
45.990

@<SCITEGIC>MOL_PROPERTY
-TS
SciTegic.value.DoubleValue
32.939

@<SCITEGIC>MOL_PROPERTY
U+W
SciTegic.value.DoubleValue
24.529

@<SCITEGIC>MOL_PROPERTY
U
SciTegic.value.DoubleValue
74.342

@<SCITEGIC>MOL_PROPERTY
W
SciTegic.value.DoubleValue
-49.814

@<SCITEGIC>MOL_PROPERTY
W(PB)
SciTegic.value.DoubleValue
-52.009

@<SCITEGIC>MOL_PROPERTY
W(SA)
SciTegic.value.DoubleValue
2.196

@<SCITEGIC>MOL_PROPERTY
Valence
SciTegic.value.DoubleValue
4.643

@<SCITEGIC>MOL_PROPERTY
Coulomb
SciTegic.value.DoubleValue
69.388

@<SCITEGIC>MOL_PROPERTY
VdW
SciTegic.value.DoubleValue
0.311

@<SCITEGIC>MOL_PROPERTY
VdW6
SciTegic.value.DoubleValue
-8.574

@<SCITEGIC>MOL_PROPERTY
VdW12
SciTegic.value.DoubleValue
8.885

@<SCITEGIC>MOL_PROPERTY
Bond
SciTegic.value.DoubleValue
0.266

@<SCITEGIC>MOL_PROPERTY
Angle
SciTegic.value.DoubleValue
1.427

@<SCITEGIC>MOL_PROPERTY
Pdih
SciTegic.value.DoubleValue
2.951

@<SCITEGIC>MOL_PROPERTY
Idih
SciTegic.value.DoubleValue
0.000

@<SCITEGIC>MOL_PROPERTY
Tether
SciTegic.value.DoubleValue
0.000

@<TRIPOS>MOLECULE
guest-s12_vm2.mol2 : vm2 ligand conformer 133
          26          25           1
SMALL
USER_CHARGES
 
@<TRIPOS>ATOM
       1    N1      19.526662   19.299291   25.550402 N.4        1 MOL1        -0.4857
       2    H1      19.414426   18.530733   26.229649 H          1 MOL1         0.3650
       3    H2      18.673407   19.283636   24.972185 H          1 MOL1         0.3650
       4    C1      20.748005   19.056554   24.685074 C.3        1 MOL1         0.0209
       5    H3      21.621229   19.070046   25.342253 H          1 MOL1         0.0967
       6    H4      20.836312   19.893458   23.991484 H          1 MOL1         0.0967
       7    C2      20.714465   17.719112   23.914333 C.3        1 MOL1        -0.1378
       8    H5      21.682586   17.558170   23.421891 H          1 MOL1         0.0993
       9    H6      20.611984   16.907160   24.646543 H          1 MOL1         0.0993
      10    C3      19.571967   17.600401   22.869757 C.3        1 MOL1        -0.1338
      11    H7      18.638597   18.020830   23.265607 H          1 MOL1         0.0993
      12    H8      19.367761   16.531821   22.715001 H          1 MOL1         0.0993
      13    C4      19.882707   18.216877   21.480800 C.3        1 MOL1        -0.1338
      14    H9      20.756994   17.715043   21.043698 H          1 MOL1         0.0993
      15    H10     19.039112   17.992359   20.813399 H          1 MOL1         0.0993
      16    C5      20.119215   19.744880   21.489172 C.3        1 MOL1        -0.1313
      17    H11     21.062365   19.974015   22.001285 H          1 MOL1         0.0993
      18    H12     19.314716   20.246057   22.045242 H          1 MOL1         0.0993
      19    C6      20.186194   20.318634   20.057617 C.3        1 MOL1        -0.2328
      20    H13     19.245389   20.147666   19.518323 H          1 MOL1         0.1004
      21    H14     20.998566   19.853868   19.483793 H          1 MOL1         0.1004
      22    H15     20.367510   21.401013   20.081955 H          1 MOL1         0.1004
      23    C7      19.658784   20.634252   26.269844 C.3        1 MOL1        -0.0781
      24    H16     19.743844   21.433798   25.530653 H          1 MOL1         0.0978
      25    H17     18.773658   20.796717   26.888927 H          1 MOL1         0.0978
      26    H18     20.550957   20.615875   26.899614 H          1 MOL1         0.0978
@<TRIPOS>BOND
    1     1     2    1
    2     1     3    1
    3     1     4    1
    4     4     5    1
    5     4     6    1
    6     4     7    1
    7     7     8    1
    8     7     9    1
    9     7    10    1
   10    10    11    1
   11    10    12    1
   12    10    13    1
   13    13    14    1
   14    13    15    1
   15    13    16    1
   16    16    17    1
   17    16    18    1
   18    16    19    1
   19    19    20    1
   20    19    21    1
   21    19    22    1
   22     1    23    1
   23    23    24    1
   24    23    25    1
   25    23    26    1
@<TRIPOS>SUBSTRUCTURE
       1 MOL1            1 RESIDUE      1      MOL     
@<SCITEGIC>MOL_PROPERTY
VM2 Rank
SciTegic.value.IntegerValue
133

@<SCITEGIC>MOL_PROPERTY
Conf_Id
SciTegic.value.IntegerValue
1491

@<SCITEGIC>MOL_PROPERTY
Probability
SciTegic.value.DoubleValue
0.02

@<SCITEGIC>MOL_PROPERTY
Sum Probability
SciTegic.value.DoubleValue
99.55

@<SCITEGIC>MOL_PROPERTY
Delta G
SciTegic.value.DoubleValue
3.533

@<SCITEGIC>MOL_PROPERTY
G
SciTegic.value.DoubleValue
78.999

@<SCITEGIC>MOL_PROPERTY
E
SciTegic.value.DoubleValue
46.507

@<SCITEGIC>MOL_PROPERTY
-TS
SciTegic.value.DoubleValue
32.491

@<SCITEGIC>MOL_PROPERTY
U+W
SciTegic.value.DoubleValue
25.046

@<SCITEGIC>MOL_PROPERTY
U
SciTegic.value.DoubleValue
74.583

@<SCITEGIC>MOL_PROPERTY
W
SciTegic.value.DoubleValue
-49.538

@<SCITEGIC>MOL_PROPERTY
W(PB)
SciTegic.value.DoubleValue
-51.785

@<SCITEGIC>MOL_PROPERTY
W(SA)
SciTegic.value.DoubleValue
2.248

@<SCITEGIC>MOL_PROPERTY
Valence
SciTegic.value.DoubleValue
4.290

@<SCITEGIC>MOL_PROPERTY
Coulomb
SciTegic.value.DoubleValue
70.230

@<SCITEGIC>MOL_PROPERTY
VdW
SciTegic.value.DoubleValue
0.064

@<SCITEGIC>MOL_PROPERTY
VdW6
SciTegic.value.DoubleValue
-7.673

@<SCITEGIC>MOL_PROPERTY
VdW12
SciTegic.value.DoubleValue
7.737

@<SCITEGIC>MOL_PROPERTY
Bond
SciTegic.value.DoubleValue
0.226

@<SCITEGIC>MOL_PROPERTY
Angle
SciTegic.value.DoubleValue
1.376

@<SCITEGIC>MOL_PROPERTY
Pdih
SciTegic.value.DoubleValue
2.688

@<SCITEGIC>MOL_PROPERTY
Idih
SciTegic.value.DoubleValue
0.000

@<SCITEGIC>MOL_PROPERTY
Tether
SciTegic.value.DoubleValue
0.000

@<TRIPOS>MOLECULE
guest-s12_vm2.mol2 : vm2 ligand conformer 134
          26          25           1
SMALL
USER_CHARGES
 
@<TRIPOS>ATOM
       1    N1      20.359948   19.383735   25.579612 N.4        1 MOL1        -0.4857
       2    H1      21.237276   19.543310   25.062452 H          1 MOL1         0.3650
       3    H2      20.576119   18.648447   26.270464 H          1 MOL1         0.3650
       4    C1      19.275351   18.907474   24.632927 C.3        1 MOL1         0.0209
       5    H3      18.373409   18.741286   25.227459 H          1 MOL1         0.0967
       6    H4      19.069912   19.714598   23.928929 H          1 MOL1         0.0967
       7    C2      19.629628   17.609242   23.875952 C.3        1 MOL1        -0.1378
       8    H5      19.840908   16.829062   24.619308 H          1 MOL1         0.0993
       9    H6      18.750170   17.261376   23.318097 H          1 MOL1         0.0993
      10    C3      20.843082   17.728767   22.914816 C.3        1 MOL1        -0.1338
      11    H7      21.267036   16.723686   22.782196 H          1 MOL1         0.0993
      12    H8      21.643553   18.324365   23.372137 H          1 MOL1         0.0993
      13    C4      20.513484   18.280663   21.503228 C.3        1 MOL1        -0.1338
      14    H9      21.429559   18.233989   20.898153 H          1 MOL1         0.0993
      15    H10     19.789892   17.617420   21.009471 H          1 MOL1         0.0993
      16    C5      19.976488   19.730516   21.484296 C.3        1 MOL1        -0.1313
      17    H11     20.623682   20.378337   22.091818 H          1 MOL1         0.0993
      18    H12     18.973068   19.762957   21.927449 H          1 MOL1         0.0993
      19    C6      19.896661   20.289489   20.047564 C.3        1 MOL1        -0.2328
      20    H13     19.501523   21.313629   20.051517 H          1 MOL1         0.1004
      21    H14     19.235726   19.675893   19.421548 H          1 MOL1         0.1004
      22    H15     20.888063   20.313738   19.576697 H          1 MOL1         0.1004
      23    C7      19.913358   20.660115   26.278605 C.3        1 MOL1        -0.0781
      24    H16     19.001199   20.459059   26.844702 H          1 MOL1         0.0978
      25    H17     20.702636   20.992130   26.956773 H          1 MOL1         0.0978
      26    H18     19.721740   21.431633   25.529635 H          1 MOL1         0.0978
@<TRIPOS>BOND
    1     1     2    1
    2     1     3    1
    3     1     4    1
    4     4     5    1
    5     4     6    1
    6     4     7    1
    7     7     8    1
    8     7     9    1
    9     7    10    1
   10    10    11    1
   11    10    12    1
   12    10    13    1
   13    13    14    1
   14    13    15    1
   15    13    16    1
   16    16    17    1
   17    16    18    1
   18    16    19    1
   19    19    20    1
   20    19    21    1
   21    19    22    1
   22     1    23    1
   23    23    24    1
   24    23    25    1
   25    23    26    1
@<TRIPOS>SUBSTRUCTURE
       1 MOL1            1 RESIDUE      1      MOL     
@<SCITEGIC>MOL_PROPERTY
VM2 Rank
SciTegic.value.IntegerValue
134

@<SCITEGIC>MOL_PROPERTY
Conf_Id
SciTegic.value.IntegerValue
1619

@<SCITEGIC>MOL_PROPERTY
Probability
SciTegic.value.DoubleValue
0.02

@<SCITEGIC>MOL_PROPERTY
Sum Probability
SciTegic.value.DoubleValue
99.57

@<SCITEGIC>MOL_PROPERTY
Delta G
SciTegic.value.DoubleValue
3.543

@<SCITEGIC>MOL_PROPERTY
G
SciTegic.value.DoubleValue
79.009

@<SCITEGIC>MOL_PROPERTY
E
SciTegic.value.DoubleValue
46.519

@<SCITEGIC>MOL_PROPERTY
-TS
SciTegic.value.DoubleValue
32.490

@<SCITEGIC>MOL_PROPERTY
U+W
SciTegic.value.DoubleValue
25.057

@<SCITEGIC>MOL_PROPERTY
U
SciTegic.value.DoubleValue
74.584

@<SCITEGIC>MOL_PROPERTY
W
SciTegic.value.DoubleValue
-49.526

@<SCITEGIC>MOL_PROPERTY
W(PB)
SciTegic.value.DoubleValue
-51.786

@<SCITEGIC>MOL_PROPERTY
W(SA)
SciTegic.value.DoubleValue
2.260

@<SCITEGIC>MOL_PROPERTY
Valence
SciTegic.value.DoubleValue
4.289

@<SCITEGIC>MOL_PROPERTY
Coulomb
SciTegic.value.DoubleValue
70.230

@<SCITEGIC>MOL_PROPERTY
VdW
SciTegic.value.DoubleValue
0.064

@<SCITEGIC>MOL_PROPERTY
VdW6
SciTegic.value.DoubleValue
-7.673

@<SCITEGIC>MOL_PROPERTY
VdW12
SciTegic.value.DoubleValue
7.737

@<SCITEGIC>MOL_PROPERTY
Bond
SciTegic.value.DoubleValue
0.226

@<SCITEGIC>MOL_PROPERTY
Angle
SciTegic.value.DoubleValue
1.377

@<SCITEGIC>MOL_PROPERTY
Pdih
SciTegic.value.DoubleValue
2.687

@<SCITEGIC>MOL_PROPERTY
Idih
SciTegic.value.DoubleValue
0.000

@<SCITEGIC>MOL_PROPERTY
Tether
SciTegic.value.DoubleValue
0.000

@<TRIPOS>MOLECULE
guest-s12_vm2.mol2 : vm2 ligand conformer 135
          26          25           1
SMALL
USER_CHARGES
 
@<TRIPOS>ATOM
       1    N1      19.278335   18.494151   25.342432 N.4        1 MOL1        -0.4857
       2    H1      18.938563   17.639353   25.811238 H          1 MOL1         0.3650
       3    H2      18.756811   18.541762   24.456141 H          1 MOL1         0.3650
       4    C1      20.768440   18.363925   25.068593 C.3        1 MOL1         0.0209
       5    H3      20.941524   17.382717   24.619412 H          1 MOL1         0.0967
       6    H4      21.271161   18.379496   26.038892 H          1 MOL1         0.0967
       7    C2      21.387741   19.451608   24.160170 C.3        1 MOL1        -0.1378
       8    H5      21.072296   20.451006   24.485191 H          1 MOL1         0.0993
       9    H6      22.475515   19.422400   24.306748 H          1 MOL1         0.0993
      10    C3      21.110016   19.265219   22.646361 C.3        1 MOL1        -0.1338
      11    H7      21.467535   18.275279   22.332611 H          1 MOL1         0.0993
      12    H8      21.715733   19.998881   22.096716 H          1 MOL1         0.0993
      13    C4      19.624864   19.441669   22.241743 C.3        1 MOL1        -0.1338
      14    H9      19.032847   18.593660   22.606519 H          1 MOL1         0.0993
      15    H10     19.222226   20.344225   22.722123 H          1 MOL1         0.0993
      16    C5      19.419926   19.565376   20.712541 C.3        1 MOL1        -0.1313
      17    H11     19.976929   20.432733   20.331372 H          1 MOL1         0.0993
      18    H12     18.358834   19.770744   20.513053 H          1 MOL1         0.0993
      19    C6      19.838348   18.296816   19.934725 C.3        1 MOL1        -0.2328
      20    H13     19.599642   18.403358   18.868620 H          1 MOL1         0.1004
      21    H14     19.309749   17.410893   20.309811 H          1 MOL1         0.1004
      22    H15     20.917028   18.113018   20.014515 H          1 MOL1         0.1004
      23    C7      18.980331   19.711237   26.210435 C.3        1 MOL1        -0.0781
      24    H16     19.534172   19.627143   27.147968 H          1 MOL1         0.0978
      25    H17     19.282713   20.616848   25.681115 H          1 MOL1         0.0978
      26    H18     17.908560   19.748196   26.417739 H          1 MOL1         0.0978
@<TRIPOS>BOND
    1     1     2    1
    2     1     3    1
    3     1     4    1
    4     4     5    1
    5     4     6    1
    6     4     7    1
    7     7     8    1
    8     7     9    1
    9     7    10    1
   10    10    11    1
   11    10    12    1
   12    10    13    1
   13    13    14    1
   14    13    15    1
   15    13    16    1
   16    16    17    1
   17    16    18    1
   18    16    19    1
   19    19    20    1
   20    19    21    1
   21    19    22    1
   22     1    23    1
   23    23    24    1
   24    23    25    1
   25    23    26    1
@<TRIPOS>SUBSTRUCTURE
       1 MOL1            1 RESIDUE      1      MOL     
@<SCITEGIC>MOL_PROPERTY
VM2 Rank
SciTegic.value.IntegerValue
135

@<SCITEGIC>MOL_PROPERTY
Conf_Id
SciTegic.value.IntegerValue
816

@<SCITEGIC>MOL_PROPERTY
Probability
SciTegic.value.DoubleValue
0.02

@<SCITEGIC>MOL_PROPERTY
Sum Probability
SciTegic.value.DoubleValue
99.59

@<SCITEGIC>MOL_PROPERTY
Delta G
SciTegic.value.DoubleValue
3.616

@<SCITEGIC>MOL_PROPERTY
G
SciTegic.value.DoubleValue
79.082

@<SCITEGIC>MOL_PROPERTY
E
SciTegic.value.DoubleValue
46.578

@<SCITEGIC>MOL_PROPERTY
-TS
SciTegic.value.DoubleValue
32.504

@<SCITEGIC>MOL_PROPERTY
U+W
SciTegic.value.DoubleValue
25.116

@<SCITEGIC>MOL_PROPERTY
U
SciTegic.value.DoubleValue
74.899

@<SCITEGIC>MOL_PROPERTY
W
SciTegic.value.DoubleValue
-49.783

@<SCITEGIC>MOL_PROPERTY
W(PB)
SciTegic.value.DoubleValue
-51.980

@<SCITEGIC>MOL_PROPERTY
W(SA)
SciTegic.value.DoubleValue
2.197

@<SCITEGIC>MOL_PROPERTY
Valence
SciTegic.value.DoubleValue
4.085

@<SCITEGIC>MOL_PROPERTY
Coulomb
SciTegic.value.DoubleValue
70.542

@<SCITEGIC>MOL_PROPERTY
VdW
SciTegic.value.DoubleValue
0.272

@<SCITEGIC>MOL_PROPERTY
VdW6
SciTegic.value.DoubleValue
-8.421

@<SCITEGIC>MOL_PROPERTY
VdW12
SciTegic.value.DoubleValue
8.693

@<SCITEGIC>MOL_PROPERTY
Bond
SciTegic.value.DoubleValue
0.258

@<SCITEGIC>MOL_PROPERTY
Angle
SciTegic.value.DoubleValue
1.367

@<SCITEGIC>MOL_PROPERTY
Pdih
SciTegic.value.DoubleValue
2.460

@<SCITEGIC>MOL_PROPERTY
Idih
SciTegic.value.DoubleValue
0.000

@<SCITEGIC>MOL_PROPERTY
Tether
SciTegic.value.DoubleValue
0.000

@<TRIPOS>MOLECULE
guest-s12_vm2.mol2 : vm2 ligand conformer 136
          26          25           1
SMALL
USER_CHARGES
 
@<TRIPOS>ATOM
       1    N1      19.966970   18.964043   26.281579 N.4        1 MOL1        -0.4857
       2    H1      20.260661   19.473690   27.130067 H          1 MOL1         0.3650
       3    H2      20.303478   17.998820   26.421289 H          1 MOL1         0.3650
       4    C1      20.632012   19.581238   25.062567 C.3        1 MOL1         0.0209
       5    H3      21.696681   19.680698   25.288936 H          1 MOL1         0.0967
       6    H4      20.219407   20.583955   24.925851 H          1 MOL1         0.0967
       7    C2      20.470222   18.766270   23.763385 C.3        1 MOL1        -0.1378
       8    H5      20.847252   17.747985   23.925977 H          1 MOL1         0.0993
       9    H6      19.406809   18.674321   23.518804 H          1 MOL1         0.0993
      10    C3      21.239162   19.420696   22.590465 C.3        1 MOL1        -0.1338
      11    H7      22.303150   19.464173   22.862077 H          1 MOL1         0.0993
      12    H8      20.917898   20.462893   22.456068 H          1 MOL1         0.0993
      13    C4      21.104837   18.645594   21.253454 C.3        1 MOL1        -0.1338
      14    H9      22.057203   18.730529   20.711885 H          1 MOL1         0.0993
      15    H10     20.969660   17.572398   21.446197 H          1 MOL1         0.0993
      16    C5      19.986687   19.163072   20.312361 C.3        1 MOL1        -0.1313
      17    H11     20.029191   18.591785   19.374449 H          1 MOL1         0.0993
      18    H12     20.188763   20.208468   20.040125 H          1 MOL1         0.0993
      19    C6      18.560439   19.052326   20.894610 C.3        1 MOL1        -0.2328
      20    H13     17.814180   19.309717   20.131896 H          1 MOL1         0.1004
      21    H14     18.418452   19.741786   21.735829 H          1 MOL1         0.1004
      22    H15     18.350334   18.031240   21.238219 H          1 MOL1         0.1004
      23    C7      18.447671   18.996762   26.158577 C.3        1 MOL1        -0.0781
      24    H16     18.120384   20.030769   26.029909 H          1 MOL1         0.0978
      25    H17     18.141227   18.400693   25.296717 H          1 MOL1         0.0978
      26    H18     18.006885   18.581036   27.067408 H          1 MOL1         0.0978
@<TRIPOS>BOND
    1     1     2    1
    2     1     3    1
    3     1     4    1
    4     4     5    1
    5     4     6    1
    6     4     7    1
    7     7     8    1
    8     7     9    1
    9     7    10    1
   10    10    11    1
   11    10    12    1
   12    10    13    1
   13    13    14    1
   14    13    15    1
   15    13    16    1
   16    16    17    1
   17    16    18    1
   18    16    19    1
   19    19    20    1
   20    19    21    1
   21    19    22    1
   22     1    23    1
   23    23    24    1
   24    23    25    1
   25    23    26    1
@<TRIPOS>SUBSTRUCTURE
       1 MOL1            1 RESIDUE      1      MOL     
@<SCITEGIC>MOL_PROPERTY
VM2 Rank
SciTegic.value.IntegerValue
136

@<SCITEGIC>MOL_PROPERTY
Conf_Id
SciTegic.value.IntegerValue
1007

@<SCITEGIC>MOL_PROPERTY
Probability
SciTegic.value.DoubleValue
0.02

@<SCITEGIC>MOL_PROPERTY
Sum Probability
SciTegic.value.DoubleValue
99.60

@<SCITEGIC>MOL_PROPERTY
Delta G
SciTegic.value.DoubleValue
3.639

@<SCITEGIC>MOL_PROPERTY
G
SciTegic.value.DoubleValue
79.105

@<SCITEGIC>MOL_PROPERTY
E
SciTegic.value.DoubleValue
46.421

@<SCITEGIC>MOL_PROPERTY
-TS
SciTegic.value.DoubleValue
32.684

@<SCITEGIC>MOL_PROPERTY
U+W
SciTegic.value.DoubleValue
24.959

@<SCITEGIC>MOL_PROPERTY
U
SciTegic.value.DoubleValue
74.399

@<SCITEGIC>MOL_PROPERTY
W
SciTegic.value.DoubleValue
-49.440

@<SCITEGIC>MOL_PROPERTY
W(PB)
SciTegic.value.DoubleValue
-51.680

@<SCITEGIC>MOL_PROPERTY
W(SA)
SciTegic.value.DoubleValue
2.240

@<SCITEGIC>MOL_PROPERTY
Valence
SciTegic.value.DoubleValue
4.963

@<SCITEGIC>MOL_PROPERTY
Coulomb
SciTegic.value.DoubleValue
68.942

@<SCITEGIC>MOL_PROPERTY
VdW
SciTegic.value.DoubleValue
0.494

@<SCITEGIC>MOL_PROPERTY
VdW6
SciTegic.value.DoubleValue
-7.590

@<SCITEGIC>MOL_PROPERTY
VdW12
SciTegic.value.DoubleValue
8.083

@<SCITEGIC>MOL_PROPERTY
Bond
SciTegic.value.DoubleValue
0.249

@<SCITEGIC>MOL_PROPERTY
Angle
SciTegic.value.DoubleValue
1.244

@<SCITEGIC>MOL_PROPERTY
Pdih
SciTegic.value.DoubleValue
3.470

@<SCITEGIC>MOL_PROPERTY
Idih
SciTegic.value.DoubleValue
0.000

@<SCITEGIC>MOL_PROPERTY
Tether
SciTegic.value.DoubleValue
0.000

@<TRIPOS>MOLECULE
guest-s12_vm2.mol2 : vm2 ligand conformer 137
          26          25           1
SMALL
USER_CHARGES
 
@<TRIPOS>ATOM
       1    N1      20.240010   19.214438   25.838034 N.4        1 MOL1        -0.4857
       2    H1      21.248603   19.001584   25.883517 H          1 MOL1         0.3650
       3    H2      19.781446   18.496788   26.420655 H          1 MOL1         0.3650
       4    C1      19.749088   19.119279   24.407785 C.3        1 MOL1         0.0209
       5    H3      20.255231   19.895911   23.832759 H          1 MOL1         0.0967
       6    H4      18.678143   19.337001   24.407051 H          1 MOL1         0.0967
       7    C2      19.994672   17.737652   23.770472 C.3        1 MOL1        -0.1378
       8    H5      21.063172   17.487032   23.804833 H          1 MOL1         0.0993
       9    H6      19.479992   16.984618   24.382025 H          1 MOL1         0.0993
      10    C3      19.470391   17.631769   22.315692 C.3        1 MOL1        -0.1338
      11    H7      18.509144   18.153884   22.218272 H          1 MOL1         0.0993
      12    H8      19.248451   16.574577   22.114477 H          1 MOL1         0.0993
      13    C4      20.467069   18.108951   21.224331 C.3        1 MOL1        -0.1338
      14    H9      21.380375   17.501410   21.287363 H          1 MOL1         0.0993
      15    H10     20.033536   17.889685   20.238806 H          1 MOL1         0.0993
      16    C5      20.863111   19.605961   21.264118 C.3        1 MOL1        -0.1313
      17    H11     21.571518   19.798499   20.446264 H          1 MOL1         0.0993
      18    H12     21.412909   19.830192   22.186845 H          1 MOL1         0.0993
      19    C6      19.660918   20.565415   21.108251 C.3        1 MOL1        -0.2328
      20    H13     18.958107   20.477469   21.945211 H          1 MOL1         0.1004
      21    H14     19.112687   20.360227   20.179666 H          1 MOL1         0.1004
      22    H15     20.003120   21.607716   21.071552 H          1 MOL1         0.1004
      23    C7      19.962741   20.606536   26.388318 C.3        1 MOL1        -0.0781
      24    H16     18.887413   20.795917   26.360977 H          1 MOL1         0.0978
      25    H17     20.320968   20.662220   27.418707 H          1 MOL1         0.0978
      26    H18     20.484470   21.345328   25.775999 H          1 MOL1         0.0978
@<TRIPOS>BOND
    1     1     2    1
    2     1     3    1
    3     1     4    1
    4     4     5    1
    5     4     6    1
    6     4     7    1
    7     7     8    1
    8     7     9    1
    9     7    10    1
   10    10    11    1
   11    10    12    1
   12    10    13    1
   13    13    14    1
   14    13    15    1
   15    13    16    1
   16    16    17    1
   17    16    18    1
   18    16    19    1
   19    19    20    1
   20    19    21    1
   21    19    22    1
   22     1    23    1
   23    23    24    1
   24    23    25    1
   25    23    26    1
@<TRIPOS>SUBSTRUCTURE
       1 MOL1            1 RESIDUE      1      MOL     
@<SCITEGIC>MOL_PROPERTY
VM2 Rank
SciTegic.value.IntegerValue
137

@<SCITEGIC>MOL_PROPERTY
Conf_Id
SciTegic.value.IntegerValue
1632

@<SCITEGIC>MOL_PROPERTY
Probability
SciTegic.value.DoubleValue
0.02

@<SCITEGIC>MOL_PROPERTY
Sum Probability
SciTegic.value.DoubleValue
99.62

@<SCITEGIC>MOL_PROPERTY
Delta G
SciTegic.value.DoubleValue
3.639

@<SCITEGIC>MOL_PROPERTY
G
SciTegic.value.DoubleValue
79.105

@<SCITEGIC>MOL_PROPERTY
E
SciTegic.value.DoubleValue
46.122

@<SCITEGIC>MOL_PROPERTY
-TS
SciTegic.value.DoubleValue
32.984

@<SCITEGIC>MOL_PROPERTY
U+W
SciTegic.value.DoubleValue
24.660

@<SCITEGIC>MOL_PROPERTY
U
SciTegic.value.DoubleValue
74.250

@<SCITEGIC>MOL_PROPERTY
W
SciTegic.value.DoubleValue
-49.591

@<SCITEGIC>MOL_PROPERTY
W(PB)
SciTegic.value.DoubleValue
-51.809

@<SCITEGIC>MOL_PROPERTY
W(SA)
SciTegic.value.DoubleValue
2.218

@<SCITEGIC>MOL_PROPERTY
Valence
SciTegic.value.DoubleValue
4.607

@<SCITEGIC>MOL_PROPERTY
Coulomb
SciTegic.value.DoubleValue
69.758

@<SCITEGIC>MOL_PROPERTY
VdW
SciTegic.value.DoubleValue
-0.115

@<SCITEGIC>MOL_PROPERTY
VdW6
SciTegic.value.DoubleValue
-8.153

@<SCITEGIC>MOL_PROPERTY
VdW12
SciTegic.value.DoubleValue
8.038

@<SCITEGIC>MOL_PROPERTY
Bond
SciTegic.value.DoubleValue
0.239

@<SCITEGIC>MOL_PROPERTY
Angle
SciTegic.value.DoubleValue
1.671

@<SCITEGIC>MOL_PROPERTY
Pdih
SciTegic.value.DoubleValue
2.697

@<SCITEGIC>MOL_PROPERTY
Idih
SciTegic.value.DoubleValue
0.000

@<SCITEGIC>MOL_PROPERTY
Tether
SciTegic.value.DoubleValue
0.000

@<TRIPOS>MOLECULE
guest-s12_vm2.mol2 : vm2 ligand conformer 138
          26          25           1
SMALL
USER_CHARGES
 
@<TRIPOS>ATOM
       1    N1      20.557699   18.504737   26.117355 N.4        1 MOL1        -0.4857
       2    H1      21.262375   18.699643   26.846326 H          1 MOL1         0.3650
       3    H2      20.770676   17.549858   25.789961 H          1 MOL1         0.3650
       4    C1      20.716313   19.498620   24.978765 C.3        1 MOL1         0.0209
       5    H3      21.775245   19.516039   24.708563 H          1 MOL1         0.0967
       6    H4      20.446380   20.488274   25.355732 H          1 MOL1         0.0967
       7    C2      19.884556   19.171349   23.722009 C.3        1 MOL1        -0.1378
       8    H5      20.119702   18.153909   23.390791 H          1 MOL1         0.0993
       9    H6      18.816260   19.184077   23.973415 H          1 MOL1         0.0993
      10    C3      20.155322   20.190129   22.588773 C.3        1 MOL1        -0.1338
      11    H7      21.229043   20.231533   22.358932 H          1 MOL1         0.0993
      12    H8      19.885696   21.189567   22.957811 H          1 MOL1         0.0993
      13    C4      19.344509   19.909174   21.296422 C.3        1 MOL1        -0.1338
      14    H9      18.389377   19.425091   21.542470 H          1 MOL1         0.0993
      15    H10     19.078103   20.874302   20.843579 H          1 MOL1         0.0993
      16    C5      20.099042   19.084046   20.222469 C.3        1 MOL1        -0.1313
      17    H11     21.000157   19.627681   19.905843 H          1 MOL1         0.0993
      18    H12     19.461459   19.008233   19.330505 H          1 MOL1         0.0993
      19    C6      20.491909   17.659637   20.671888 C.3        1 MOL1        -0.2328
      20    H13     21.264628   17.685968   21.449890 H          1 MOL1         0.1004
      21    H14     20.898885   17.089749   19.826616 H          1 MOL1         0.1004
      22    H15     19.622921   17.111697   21.058486 H          1 MOL1         0.1004
      23    C7      19.158650   18.572308   26.719320 C.3        1 MOL1        -0.0781
      24    H16     18.423844   18.301291   25.958630 H          1 MOL1         0.0978
      25    H17     19.095681   17.872817   27.555880 H          1 MOL1         0.0978
      26    H18     18.969043   19.588043   27.073117 H          1 MOL1         0.0978
@<TRIPOS>BOND
    1     1     2    1
    2     1     3    1
    3     1     4    1
    4     4     5    1
    5     4     6    1
    6     4     7    1
    7     7     8    1
    8     7     9    1
    9     7    10    1
   10    10    11    1
   11    10    12    1
   12    10    13    1
   13    13    14    1
   14    13    15    1
   15    13    16    1
   16    16    17    1
   17    16    18    1
   18    16    19    1
   19    19    20    1
   20    19    21    1
   21    19    22    1
   22     1    23    1
   23    23    24    1
   24    23    25    1
   25    23    26    1
@<TRIPOS>SUBSTRUCTURE
       1 MOL1            1 RESIDUE      1      MOL     
@<SCITEGIC>MOL_PROPERTY
VM2 Rank
SciTegic.value.IntegerValue
138

@<SCITEGIC>MOL_PROPERTY
Conf_Id
SciTegic.value.IntegerValue
832

@<SCITEGIC>MOL_PROPERTY
Probability
SciTegic.value.DoubleValue
0.02

@<SCITEGIC>MOL_PROPERTY
Sum Probability
SciTegic.value.DoubleValue
99.63

@<SCITEGIC>MOL_PROPERTY
Delta G
SciTegic.value.DoubleValue
3.648

@<SCITEGIC>MOL_PROPERTY
G
SciTegic.value.DoubleValue
79.114

@<SCITEGIC>MOL_PROPERTY
E
SciTegic.value.DoubleValue
46.441

@<SCITEGIC>MOL_PROPERTY
-TS
SciTegic.value.DoubleValue
32.673

@<SCITEGIC>MOL_PROPERTY
U+W
SciTegic.value.DoubleValue
24.979

@<SCITEGIC>MOL_PROPERTY
U
SciTegic.value.DoubleValue
74.461

@<SCITEGIC>MOL_PROPERTY
W
SciTegic.value.DoubleValue
-49.482

@<SCITEGIC>MOL_PROPERTY
W(PB)
SciTegic.value.DoubleValue
-51.720

@<SCITEGIC>MOL_PROPERTY
W(SA)
SciTegic.value.DoubleValue
2.238

@<SCITEGIC>MOL_PROPERTY
Valence
SciTegic.value.DoubleValue
4.968

@<SCITEGIC>MOL_PROPERTY
Coulomb
SciTegic.value.DoubleValue
68.965

@<SCITEGIC>MOL_PROPERTY
VdW
SciTegic.value.DoubleValue
0.528

@<SCITEGIC>MOL_PROPERTY
VdW6
SciTegic.value.DoubleValue
-7.526

@<SCITEGIC>MOL_PROPERTY
VdW12
SciTegic.value.DoubleValue
8.054

@<SCITEGIC>MOL_PROPERTY
Bond
SciTegic.value.DoubleValue
0.248

@<SCITEGIC>MOL_PROPERTY
Angle
SciTegic.value.DoubleValue
1.260

@<SCITEGIC>MOL_PROPERTY
Pdih
SciTegic.value.DoubleValue
3.461

@<SCITEGIC>MOL_PROPERTY
Idih
SciTegic.value.DoubleValue
0.000

@<SCITEGIC>MOL_PROPERTY
Tether
SciTegic.value.DoubleValue
0.000

@<TRIPOS>MOLECULE
guest-s12_vm2.mol2 : vm2 ligand conformer 139
          26          25           1
SMALL
USER_CHARGES
 
@<TRIPOS>ATOM
       1    N1      19.659576   19.155742   25.817483 N.4        1 MOL1        -0.4857
       2    H1      20.210390   18.540145   26.435863 H          1 MOL1         0.3650
       3    H2      18.713249   18.745211   25.793680 H          1 MOL1         0.3650
       4    C1      20.258608   19.170807   24.425862 C.3        1 MOL1         0.0209
       5    H3      21.261775   19.598221   24.498645 H          1 MOL1         0.0967
       6    H4      19.648997   19.834640   23.811294 H          1 MOL1         0.0967
       7    C2      20.339463   17.772534   23.782692 C.3        1 MOL1        -0.1378
       8    H5      20.950132   17.133262   24.434127 H          1 MOL1         0.0993
       9    H6      19.342906   17.313137   23.743843 H          1 MOL1         0.0993
      10    C3      20.974978   17.783930   22.369026 C.3        1 MOL1        -0.1338
      11    H7      21.417382   16.793923   22.191365 H          1 MOL1         0.0993
      12    H8      21.816821   18.488392   22.335513 H          1 MOL1         0.0993
      13    C4      19.981988   18.059894   21.207151 C.3        1 MOL1        -0.1338
      14    H9      20.518567   17.938685   20.256004 H          1 MOL1         0.0993
      15    H10     19.206460   17.281593   21.210367 H          1 MOL1         0.0993
      16    C5      19.292858   19.447180   21.208443 C.3        1 MOL1        -0.1313
      17    H11     18.646060   19.550455   22.088767 H          1 MOL1         0.0993
      18    H12     18.619340   19.499961   20.341619 H          1 MOL1         0.0993
      19    C6      20.286867   20.628689   21.130348 C.3        1 MOL1        -0.2328
      20    H13     19.746624   21.581764   21.062333 H          1 MOL1         0.1004
      21    H14     20.928741   20.543789   20.243942 H          1 MOL1         0.1004
      22    H15     20.932663   20.677142   22.015097 H          1 MOL1         0.1004
      23    C7      19.613662   20.571224   26.375995 C.3        1 MOL1        -0.0781
      24    H16     20.628634   20.971965   26.422727 H          1 MOL1         0.0978
      25    H17     18.998961   21.195120   25.723426 H          1 MOL1         0.0978
      26    H18     19.180247   20.546838   27.378336 H          1 MOL1         0.0978
@<TRIPOS>BOND
    1     1     2    1
    2     1     3    1
    3     1     4    1
    4     4     5    1
    5     4     6    1
    6     4     7    1
    7     7     8    1
    8     7     9    1
    9     7    10    1
   10    10    11    1
   11    10    12    1
   12    10    13    1
   13    13    14    1
   14    13    15    1
   15    13    16    1
   16    16    17    1
   17    16    18    1
   18    16    19    1
   19    19    20    1
   20    19    21    1
   21    19    22    1
   22     1    23    1
   23    23    24    1
   24    23    25    1
   25    23    26    1
@<TRIPOS>SUBSTRUCTURE
       1 MOL1            1 RESIDUE      1      MOL     
@<SCITEGIC>MOL_PROPERTY
VM2 Rank
SciTegic.value.IntegerValue
139

@<SCITEGIC>MOL_PROPERTY
Conf_Id
SciTegic.value.IntegerValue
848

@<SCITEGIC>MOL_PROPERTY
Probability
SciTegic.value.DoubleValue
0.02

@<SCITEGIC>MOL_PROPERTY
Sum Probability
SciTegic.value.DoubleValue
99.65

@<SCITEGIC>MOL_PROPERTY
Delta G
SciTegic.value.DoubleValue
3.649

@<SCITEGIC>MOL_PROPERTY
G
SciTegic.value.DoubleValue
79.115

@<SCITEGIC>MOL_PROPERTY
E
SciTegic.value.DoubleValue
46.131

@<SCITEGIC>MOL_PROPERTY
-TS
SciTegic.value.DoubleValue
32.984

@<SCITEGIC>MOL_PROPERTY
U+W
SciTegic.value.DoubleValue
24.669

@<SCITEGIC>MOL_PROPERTY
U
SciTegic.value.DoubleValue
74.250

@<SCITEGIC>MOL_PROPERTY
W
SciTegic.value.DoubleValue
-49.581

@<SCITEGIC>MOL_PROPERTY
W(PB)
SciTegic.value.DoubleValue
-51.813

@<SCITEGIC>MOL_PROPERTY
W(SA)
SciTegic.value.DoubleValue
2.232

@<SCITEGIC>MOL_PROPERTY
Valence
SciTegic.value.DoubleValue
4.607

@<SCITEGIC>MOL_PROPERTY
Coulomb
SciTegic.value.DoubleValue
69.758

@<SCITEGIC>MOL_PROPERTY
VdW
SciTegic.value.DoubleValue
-0.115

@<SCITEGIC>MOL_PROPERTY
VdW6
SciTegic.value.DoubleValue
-8.152

@<SCITEGIC>MOL_PROPERTY
VdW12
SciTegic.value.DoubleValue
8.037

@<SCITEGIC>MOL_PROPERTY
Bond
SciTegic.value.DoubleValue
0.239

@<SCITEGIC>MOL_PROPERTY
Angle
SciTegic.value.DoubleValue
1.671

@<SCITEGIC>MOL_PROPERTY
Pdih
SciTegic.value.DoubleValue
2.697

@<SCITEGIC>MOL_PROPERTY
Idih
SciTegic.value.DoubleValue
0.000

@<SCITEGIC>MOL_PROPERTY
Tether
SciTegic.value.DoubleValue
0.000

@<TRIPOS>MOLECULE
guest-s12_vm2.mol2 : vm2 ligand conformer 140
          26          25           1
SMALL
USER_CHARGES
 
@<TRIPOS>ATOM
       1    N1      19.439273   18.619868   26.099856 N.4        1 MOL1        -0.4857
       2    H1      18.885472   17.811213   25.777804 H          1 MOL1         0.3650
       3    H2      18.946976   18.961828   26.940484 H          1 MOL1         0.3650
       4    C1      19.447823   19.707407   25.038480 C.3        1 MOL1         0.0209
       5    H3      20.071120   20.527995   25.402501 H          1 MOL1         0.0967
       6    H4      18.423323   20.076209   24.943354 H          1 MOL1         0.0967
       7    C2      19.944667   19.246108   23.653295 C.3        1 MOL1        -0.1378
       8    H5      20.985840   18.906697   23.726127 H          1 MOL1         0.0993
       9    H6      19.340345   18.390460   23.328086 H          1 MOL1         0.0993
      10    C3      19.843567   20.384044   22.612443 C.3        1 MOL1        -0.1338
      11    H7      20.336711   21.279697   23.015353 H          1 MOL1         0.0993
      12    H8      18.788301   20.655187   22.469588 H          1 MOL1         0.0993
      13    C4      20.482153   20.055208   21.237902 C.3        1 MOL1        -0.1338
      14    H9      20.386397   20.950016   20.607296 H          1 MOL1         0.0993
      15    H10     21.562285   19.889777   21.352675 H          1 MOL1         0.0993
      16    C5      19.834237   18.864011   20.485543 C.3        1 MOL1        -0.1313
      17    H11     19.859619   19.076302   19.407443 H          1 MOL1         0.0993
      18    H12     18.771295   18.777126   20.750555 H          1 MOL1         0.0993
      19    C6      20.559761   17.518496   20.722119 C.3        1 MOL1        -0.2328
      20    H13     21.606155   17.574919   20.395159 H          1 MOL1         0.1004
      21    H14     20.076022   16.716101   20.150225 H          1 MOL1         0.1004
      22    H15     20.552027   17.224021   21.777154 H          1 MOL1         0.1004
      23    C7      20.856519   18.194857   26.467363 C.3        1 MOL1        -0.0781
      24    H16     20.809989   17.441545   27.256948 H          1 MOL1         0.0978
      25    H17     21.347819   17.774230   25.587741 H          1 MOL1         0.0978
      26    H18     21.411841   19.066111   26.821446 H          1 MOL1         0.0978
@<TRIPOS>BOND
    1     1     2    1
    2     1     3    1
    3     1     4    1
    4     4     5    1
    5     4     6    1
    6     4     7    1
    7     7     8    1
    8     7     9    1
    9     7    10    1
   10    10    11    1
   11    10    12    1
   12    10    13    1
   13    13    14    1
   14    13    15    1
   15    13    16    1
   16    16    17    1
   17    16    18    1
   18    16    19    1
   19    19    20    1
   20    19    21    1
   21    19    22    1
   22     1    23    1
   23    23    24    1
   24    23    25    1
   25    23    26    1
@<TRIPOS>SUBSTRUCTURE
       1 MOL1            1 RESIDUE      1      MOL     
@<SCITEGIC>MOL_PROPERTY
VM2 Rank
SciTegic.value.IntegerValue
140

@<SCITEGIC>MOL_PROPERTY
Conf_Id
SciTegic.value.IntegerValue
257

@<SCITEGIC>MOL_PROPERTY
Probability
SciTegic.value.DoubleValue
0.02

@<SCITEGIC>MOL_PROPERTY
Sum Probability
SciTegic.value.DoubleValue
99.66

@<SCITEGIC>MOL_PROPERTY
Delta G
SciTegic.value.DoubleValue
3.654

@<SCITEGIC>MOL_PROPERTY
G
SciTegic.value.DoubleValue
79.120

@<SCITEGIC>MOL_PROPERTY
E
SciTegic.value.DoubleValue
46.448

@<SCITEGIC>MOL_PROPERTY
-TS
SciTegic.value.DoubleValue
32.671

@<SCITEGIC>MOL_PROPERTY
U+W
SciTegic.value.DoubleValue
24.986

@<SCITEGIC>MOL_PROPERTY
U
SciTegic.value.DoubleValue
74.475

@<SCITEGIC>MOL_PROPERTY
W
SciTegic.value.DoubleValue
-49.489

@<SCITEGIC>MOL_PROPERTY
W(PB)
SciTegic.value.DoubleValue
-51.737

@<SCITEGIC>MOL_PROPERTY
W(SA)
SciTegic.value.DoubleValue
2.248

@<SCITEGIC>MOL_PROPERTY
Valence
SciTegic.value.DoubleValue
4.984

@<SCITEGIC>MOL_PROPERTY
Coulomb
SciTegic.value.DoubleValue
68.965

@<SCITEGIC>MOL_PROPERTY
VdW
SciTegic.value.DoubleValue
0.526

@<SCITEGIC>MOL_PROPERTY
VdW6
SciTegic.value.DoubleValue
-7.550

@<SCITEGIC>MOL_PROPERTY
VdW12
SciTegic.value.DoubleValue
8.076

@<SCITEGIC>MOL_PROPERTY
Bond
SciTegic.value.DoubleValue
0.247

@<SCITEGIC>MOL_PROPERTY
Angle
SciTegic.value.DoubleValue
1.294

@<SCITEGIC>MOL_PROPERTY
Pdih
SciTegic.value.DoubleValue
3.442

@<SCITEGIC>MOL_PROPERTY
Idih
SciTegic.value.DoubleValue
0.000

@<SCITEGIC>MOL_PROPERTY
Tether
SciTegic.value.DoubleValue
0.000

@<TRIPOS>MOLECULE
guest-s12_vm2.mol2 : vm2 ligand conformer 141
          26          25           1
SMALL
USER_CHARGES
 
@<TRIPOS>ATOM
       1    N1      19.473874   18.393187   26.078949 N.4        1 MOL1        -0.4857
       2    H1      19.483275   17.417334   25.744346 H          1 MOL1         0.3650
       3    H2      18.694865   18.435290   26.755208 H          1 MOL1         0.3650
       4    C1      19.196607   19.342155   24.924853 C.3        1 MOL1         0.0209
       5    H3      19.232492   20.363298   25.312614 H          1 MOL1         0.0967
       6    H4      18.177867   19.145745   24.580986 H          1 MOL1         0.0967
       7    C2      20.163546   19.199905   23.731890 C.3        1 MOL1        -0.1378
       8    H5      21.186652   19.427606   24.057509 H          1 MOL1         0.0993
       9    H6      20.163869   18.158351   23.392253 H          1 MOL1         0.0993
      10    C3      19.771588   20.150645   22.575206 C.3        1 MOL1        -0.1338
      11    H7      19.806151   21.181320   22.955046 H          1 MOL1         0.0993
      12    H8      18.730612   19.974839   22.270441 H          1 MOL1         0.0993
      13    C4      20.711028   20.049486   21.344861 C.3        1 MOL1        -0.1338
      14    H9      20.807109   21.051865   20.904955 H          1 MOL1         0.0993
      15    H10     21.724887   19.767492   21.660649 H          1 MOL1         0.0993
      16    C5      20.216731   19.096260   20.226576 C.3        1 MOL1        -0.1313
      17    H11     20.917309   19.157871   19.382031 H          1 MOL1         0.0993
      18    H12     19.248492   19.448039   19.843741 H          1 MOL1         0.0993
      19    C6      20.090560   17.618540   20.657496 C.3        1 MOL1        -0.2328
      20    H13     21.023433   17.255489   21.107802 H          1 MOL1         0.1004
      21    H14     19.867790   16.984100   19.789886 H          1 MOL1         0.1004
      22    H15     19.276100   17.481908   21.379341 H          1 MOL1         0.1004
      23    C7      20.784066   18.739822   26.777170 C.3        1 MOL1        -0.0781
      24    H16     20.737585   19.770300   27.136049 H          1 MOL1         0.0978
      25    H17     20.929219   18.061772   27.621128 H          1 MOL1         0.0978
      26    H18     21.610228   18.629588   26.071943 H          1 MOL1         0.0978
@<TRIPOS>BOND
    1     1     2    1
    2     1     3    1
    3     1     4    1
    4     4     5    1
    5     4     6    1
    6     4     7    1
    7     7     8    1
    8     7     9    1
    9     7    10    1
   10    10    11    1
   11    10    12    1
   12    10    13    1
   13    13    14    1
   14    13    15    1
   15    13    16    1
   16    16    17    1
   17    16    18    1
   18    16    19    1
   19    19    20    1
   20    19    21    1
   21    19    22    1
   22     1    23    1
   23    23    24    1
   24    23    25    1
   25    23    26    1
@<TRIPOS>SUBSTRUCTURE
       1 MOL1            1 RESIDUE      1      MOL     
@<SCITEGIC>MOL_PROPERTY
VM2 Rank
SciTegic.value.IntegerValue
141

@<SCITEGIC>MOL_PROPERTY
Conf_Id
SciTegic.value.IntegerValue
826

@<SCITEGIC>MOL_PROPERTY
Probability
SciTegic.value.DoubleValue
0.01

@<SCITEGIC>MOL_PROPERTY
Sum Probability
SciTegic.value.DoubleValue
99.68

@<SCITEGIC>MOL_PROPERTY
Delta G
SciTegic.value.DoubleValue
3.663

@<SCITEGIC>MOL_PROPERTY
G
SciTegic.value.DoubleValue
79.129

@<SCITEGIC>MOL_PROPERTY
E
SciTegic.value.DoubleValue
46.456

@<SCITEGIC>MOL_PROPERTY
-TS
SciTegic.value.DoubleValue
32.673

@<SCITEGIC>MOL_PROPERTY
U+W
SciTegic.value.DoubleValue
24.994

@<SCITEGIC>MOL_PROPERTY
U
SciTegic.value.DoubleValue
74.461

@<SCITEGIC>MOL_PROPERTY
W
SciTegic.value.DoubleValue
-49.467

@<SCITEGIC>MOL_PROPERTY
W(PB)
SciTegic.value.DoubleValue
-51.713

@<SCITEGIC>MOL_PROPERTY
W(SA)
SciTegic.value.DoubleValue
2.246

@<SCITEGIC>MOL_PROPERTY
Valence
SciTegic.value.DoubleValue
4.969

@<SCITEGIC>MOL_PROPERTY
Coulomb
SciTegic.value.DoubleValue
68.965

@<SCITEGIC>MOL_PROPERTY
VdW
SciTegic.value.DoubleValue
0.528

@<SCITEGIC>MOL_PROPERTY
VdW6
SciTegic.value.DoubleValue
-7.525

@<SCITEGIC>MOL_PROPERTY
VdW12
SciTegic.value.DoubleValue
8.053

@<SCITEGIC>MOL_PROPERTY
Bond
SciTegic.value.DoubleValue
0.248

@<SCITEGIC>MOL_PROPERTY
Angle
SciTegic.value.DoubleValue
1.260

@<SCITEGIC>MOL_PROPERTY
Pdih
SciTegic.value.DoubleValue
3.461

@<SCITEGIC>MOL_PROPERTY
Idih
SciTegic.value.DoubleValue
0.000

@<SCITEGIC>MOL_PROPERTY
Tether
SciTegic.value.DoubleValue
0.000

@<TRIPOS>MOLECULE
guest-s12_vm2.mol2 : vm2 ligand conformer 142
          26          25           1
SMALL
USER_CHARGES
 
@<TRIPOS>ATOM
       1    N1      20.585303   19.275147   25.431355 N.4        1 MOL1        -0.4857
       2    H1      21.110394   19.597977   24.606279 H          1 MOL1         0.3650
       3    H2      21.122358   18.477964   25.806662 H          1 MOL1         0.3650
       4    C1      19.197268   18.820932   25.022411 C.3        1 MOL1         0.0209
       5    H3      18.639157   19.690753   24.667082 H          1 MOL1         0.0967
       6    H4      18.706840   18.448842   25.925517 H          1 MOL1         0.0967
       7    C2      19.179376   17.713637   23.947565 C.3        1 MOL1        -0.1378
       8    H5      19.941834   16.956420   24.173570 H          1 MOL1         0.0993
       9    H6      18.212819   17.197011   24.016088 H          1 MOL1         0.0993
      10    C3      19.341263   18.228373   22.494231 C.3        1 MOL1        -0.1338
      11    H7      18.530834   18.935540   22.272126 H          1 MOL1         0.0993
      12    H8      19.202740   17.378048   21.812279 H          1 MOL1         0.0993
      13    C4      20.710495   18.890447   22.198710 C.3        1 MOL1        -0.1338
      14    H9      20.786293   19.848045   22.729025 H          1 MOL1         0.0993
      15    H10     21.514791   18.246479   22.580436 H          1 MOL1         0.0993
      16    C5      20.955459   19.138697   20.690653 C.3        1 MOL1        -0.1313
      17    H11     20.915722   18.185393   20.145223 H          1 MOL1         0.0993
      18    H12     21.975263   19.526023   20.556947 H          1 MOL1         0.0993
      19    C6      19.955850   20.137553   20.064220 C.3        1 MOL1        -0.2328
      20    H13     20.221453   20.342646   19.019084 H          1 MOL1         0.1004
      21    H14     19.960322   21.092825   20.604979 H          1 MOL1         0.1004
      22    H15     18.932472   19.742246   20.072849 H          1 MOL1         0.1004
      23    C7      20.482984   20.385215   26.467855 C.3        1 MOL1        -0.0781
      24    H16     19.938498   21.228867   26.038074 H          1 MOL1         0.0978
      25    H17     19.951035   20.009547   27.344682 H          1 MOL1         0.0978
      26    H18     21.488335   20.702080   26.754171 H          1 MOL1         0.0978
@<TRIPOS>BOND
    1     1     2    1
    2     1     3    1
    3     1     4    1
    4     4     5    1
    5     4     6    1
    6     4     7    1
    7     7     8    1
    8     7     9    1
    9     7    10    1
   10    10    11    1
   11    10    12    1
   12    10    13    1
   13    13    14    1
   14    13    15    1
   15    13    16    1
   16    16    17    1
   17    16    18    1
   18    16    19    1
   19    19    20    1
   20    19    21    1
   21    19    22    1
   22     1    23    1
   23    23    24    1
   24    23    25    1
   25    23    26    1
@<TRIPOS>SUBSTRUCTURE
       1 MOL1            1 RESIDUE      1      MOL     
@<SCITEGIC>MOL_PROPERTY
VM2 Rank
SciTegic.value.IntegerValue
142

@<SCITEGIC>MOL_PROPERTY
Conf_Id
SciTegic.value.IntegerValue
743

@<SCITEGIC>MOL_PROPERTY
Probability
SciTegic.value.DoubleValue
0.01

@<SCITEGIC>MOL_PROPERTY
Sum Probability
SciTegic.value.DoubleValue
99.69

@<SCITEGIC>MOL_PROPERTY
Delta G
SciTegic.value.DoubleValue
3.706

@<SCITEGIC>MOL_PROPERTY
G
SciTegic.value.DoubleValue
79.172

@<SCITEGIC>MOL_PROPERTY
E
SciTegic.value.DoubleValue
46.700

@<SCITEGIC>MOL_PROPERTY
-TS
SciTegic.value.DoubleValue
32.472

@<SCITEGIC>MOL_PROPERTY
U+W
SciTegic.value.DoubleValue
25.238

@<SCITEGIC>MOL_PROPERTY
U
SciTegic.value.DoubleValue
74.474

@<SCITEGIC>MOL_PROPERTY
W
SciTegic.value.DoubleValue
-49.236

@<SCITEGIC>MOL_PROPERTY
W(PB)
SciTegic.value.DoubleValue
-51.484

@<SCITEGIC>MOL_PROPERTY
W(SA)
SciTegic.value.DoubleValue
2.247

@<SCITEGIC>MOL_PROPERTY
Valence
SciTegic.value.DoubleValue
3.793

@<SCITEGIC>MOL_PROPERTY
Coulomb
SciTegic.value.DoubleValue
70.589

@<SCITEGIC>MOL_PROPERTY
VdW
SciTegic.value.DoubleValue
0.093

@<SCITEGIC>MOL_PROPERTY
VdW6
SciTegic.value.DoubleValue
-7.603

@<SCITEGIC>MOL_PROPERTY
VdW12
SciTegic.value.DoubleValue
7.696

@<SCITEGIC>MOL_PROPERTY
Bond
SciTegic.value.DoubleValue
0.211

@<SCITEGIC>MOL_PROPERTY
Angle
SciTegic.value.DoubleValue
1.117

@<SCITEGIC>MOL_PROPERTY
Pdih
SciTegic.value.DoubleValue
2.465

@<SCITEGIC>MOL_PROPERTY
Idih
SciTegic.value.DoubleValue
0.000

@<SCITEGIC>MOL_PROPERTY
Tether
SciTegic.value.DoubleValue
0.000

@<TRIPOS>MOLECULE
guest-s12_vm2.mol2 : vm2 ligand conformer 143
          26          25           1
SMALL
USER_CHARGES
 
@<TRIPOS>ATOM
       1    N1      19.338422   19.149765   25.386945 N.4        1 MOL1        -0.4857
       2    H1      18.945617   18.258928   25.728846 H          1 MOL1         0.3650
       3    H2      18.819015   19.367826   24.524766 H          1 MOL1         0.3650
       4    C1      20.814337   18.983760   25.079876 C.3        1 MOL1         0.0209
       5    H3      21.304209   18.710161   26.017820 H          1 MOL1         0.0967
       6    H4      21.211810   19.949783   24.758708 H          1 MOL1         0.0967
       7    C2      21.127804   17.909976   24.016654 C.3        1 MOL1        -0.1378
       8    H5      22.170676   17.595793   24.156427 H          1 MOL1         0.0993
       9    H6      20.517562   17.014434   24.193869 H          1 MOL1         0.0993
      10    C3      20.968977   18.392555   22.551992 C.3        1 MOL1        -0.1338
      11    H7      21.322038   17.591946   21.887407 H          1 MOL1         0.0993
      12    H8      21.635497   19.248845   22.382499 H          1 MOL1         0.0993
      13    C4      19.519362   18.770077   22.156305 C.3        1 MOL1        -0.1338
      14    H9      18.835019   17.975748   22.484970 H          1 MOL1         0.0993
      15    H10     19.216799   19.689391   22.673300 H          1 MOL1         0.0993
      16    C5      19.336426   18.975367   20.633063 C.3        1 MOL1        -0.1313
      17    H11     18.271801   19.152256   20.425258 H          1 MOL1         0.0993
      18    H12     19.603960   18.053181   20.098403 H          1 MOL1         0.0993
      19    C6      20.158002   20.158215   20.071602 C.3        1 MOL1        -0.2328
      20    H13     21.236509   19.975107   20.154903 H          1 MOL1         0.1004
      21    H14     19.924914   21.089392   20.604108 H          1 MOL1         0.1004
      22    H15     19.930930   20.313786   19.008987 H          1 MOL1         0.1004
      23    C7      19.144671   20.250285   26.420562 C.3        1 MOL1        -0.0781
      24    H16     19.539410   21.188523   26.024560 H          1 MOL1         0.0978
      25    H17     18.078766   20.358787   26.633128 H          1 MOL1         0.0978
      26    H18     19.677583   19.981393   27.335235 H          1 MOL1         0.0978
@<TRIPOS>BOND
    1     1     2    1
    2     1     3    1
    3     1     4    1
    4     4     5    1
    5     4     6    1
    6     4     7    1
    7     7     8    1
    8     7     9    1
    9     7    10    1
   10    10    11    1
   11    10    12    1
   12    10    13    1
   13    13    14    1
   14    13    15    1
   15    13    16    1
   16    16    17    1
   17    16    18    1
   18    16    19    1
   19    19    20    1
   20    19    21    1
   21    19    22    1
   22     1    23    1
   23    23    24    1
   24    23    25    1
   25    23    26    1
@<TRIPOS>SUBSTRUCTURE
       1 MOL1            1 RESIDUE      1      MOL     
@<SCITEGIC>MOL_PROPERTY
VM2 Rank
SciTegic.value.IntegerValue
143

@<SCITEGIC>MOL_PROPERTY
Conf_Id
SciTegic.value.IntegerValue
1353

@<SCITEGIC>MOL_PROPERTY
Probability
SciTegic.value.DoubleValue
0.01

@<SCITEGIC>MOL_PROPERTY
Sum Probability
SciTegic.value.DoubleValue
99.70

@<SCITEGIC>MOL_PROPERTY
Delta G
SciTegic.value.DoubleValue
3.722

@<SCITEGIC>MOL_PROPERTY
G
SciTegic.value.DoubleValue
79.188

@<SCITEGIC>MOL_PROPERTY
E
SciTegic.value.DoubleValue
46.717

@<SCITEGIC>MOL_PROPERTY
-TS
SciTegic.value.DoubleValue
32.471

@<SCITEGIC>MOL_PROPERTY
U+W
SciTegic.value.DoubleValue
25.255

@<SCITEGIC>MOL_PROPERTY
U
SciTegic.value.DoubleValue
74.474

@<SCITEGIC>MOL_PROPERTY
W
SciTegic.value.DoubleValue
-49.220

@<SCITEGIC>MOL_PROPERTY
W(PB)
SciTegic.value.DoubleValue
-51.463

@<SCITEGIC>MOL_PROPERTY
W(SA)
SciTegic.value.DoubleValue
2.244

@<SCITEGIC>MOL_PROPERTY
Valence
SciTegic.value.DoubleValue
3.792

@<SCITEGIC>MOL_PROPERTY
Coulomb
SciTegic.value.DoubleValue
70.589

@<SCITEGIC>MOL_PROPERTY
VdW
SciTegic.value.DoubleValue
0.093

@<SCITEGIC>MOL_PROPERTY
VdW6
SciTegic.value.DoubleValue
-7.603

@<SCITEGIC>MOL_PROPERTY
VdW12
SciTegic.value.DoubleValue
7.696

@<SCITEGIC>MOL_PROPERTY
Bond
SciTegic.value.DoubleValue
0.211

@<SCITEGIC>MOL_PROPERTY
Angle
SciTegic.value.DoubleValue
1.118

@<SCITEGIC>MOL_PROPERTY
Pdih
SciTegic.value.DoubleValue
2.464

@<SCITEGIC>MOL_PROPERTY
Idih
SciTegic.value.DoubleValue
0.000

@<SCITEGIC>MOL_PROPERTY
Tether
SciTegic.value.DoubleValue
0.000

@<TRIPOS>MOLECULE
guest-s12_vm2.mol2 : vm2 ligand conformer 144
          26          25           1
SMALL
USER_CHARGES
 
@<TRIPOS>ATOM
       1    N1      19.728829   18.903533   25.932583 N.4        1 MOL1        -0.4857
       2    H1      20.443579   18.218898   26.222025 H          1 MOL1         0.3650
       3    H2      19.015523   18.872382   26.677995 H          1 MOL1         0.3650
       4    C1      19.094040   18.479606   24.616752 C.3        1 MOL1         0.0209
       5    H3      18.622219   19.353156   24.160793 H          1 MOL1         0.0967
       6    H4      18.301843   17.770956   24.871458 H          1 MOL1         0.0967
       7    C2      20.042207   17.785336   23.611762 C.3        1 MOL1        -0.1378
       8    H5      20.544702   16.947808   24.113057 H          1 MOL1         0.0993
       9    H6      19.432480   17.331169   22.820434 H          1 MOL1         0.0993
      10    C3      21.107776   18.705305   22.961897 C.3        1 MOL1        -0.1338
      11    H7      21.697614   18.114194   22.248933 H          1 MOL1         0.0993
      12    H8      21.825477   19.026739   23.727107 H          1 MOL1         0.0993
      13    C4      20.536333   19.956667   22.241427 C.3        1 MOL1        -0.1338
      14    H9      20.070055   20.623543   22.978061 H          1 MOL1         0.0993
      15    H10     21.372054   20.527472   21.813874 H          1 MOL1         0.0993
      16    C5      19.508678   19.658986   21.119957 C.3        1 MOL1        -0.1313
      17    H11     19.164214   20.613777   20.698738 H          1 MOL1         0.0993
      18    H12     18.616073   19.177184   21.540924 H          1 MOL1         0.0993
      19    C6      20.081100   18.789689   19.977349 C.3        1 MOL1        -0.2328
      20    H13     19.345114   18.682269   19.170126 H          1 MOL1         0.1004
      21    H14     20.336608   17.781877   20.327324 H          1 MOL1         0.1004
      22    H15     20.984038   19.244594   19.549949 H          1 MOL1         0.1004
      23    C7      20.309037   20.310878   25.855272 C.3        1 MOL1        -0.0781
      24    H16     21.104140   20.340379   25.109745 H          1 MOL1         0.0978
      25    H17     19.516590   21.009521   25.578463 H          1 MOL1         0.0978
      26    H18     20.713810   20.583155   26.832542 H          1 MOL1         0.0978
@<TRIPOS>BOND
    1     1     2    1
    2     1     3    1
    3     1     4    1
    4     4     5    1
    5     4     6    1
    6     4     7    1
    7     7     8    1
    8     7     9    1
    9     7    10    1
   10    10    11    1
   11    10    12    1
   12    10    13    1
   13    13    14    1
   14    13    15    1
   15    13    16    1
   16    16    17    1
   17    16    18    1
   18    16    19    1
   19    19    20    1
   20    19    21    1
   21    19    22    1
   22     1    23    1
   23    23    24    1
   24    23    25    1
   25    23    26    1
@<TRIPOS>SUBSTRUCTURE
       1 MOL1            1 RESIDUE      1      MOL     
@<SCITEGIC>MOL_PROPERTY
VM2 Rank
SciTegic.value.IntegerValue
144

@<SCITEGIC>MOL_PROPERTY
Conf_Id
SciTegic.value.IntegerValue
793

@<SCITEGIC>MOL_PROPERTY
Probability
SciTegic.value.DoubleValue
0.01

@<SCITEGIC>MOL_PROPERTY
Sum Probability
SciTegic.value.DoubleValue
99.72

@<SCITEGIC>MOL_PROPERTY
Delta G
SciTegic.value.DoubleValue
3.751

@<SCITEGIC>MOL_PROPERTY
G
SciTegic.value.DoubleValue
79.217

@<SCITEGIC>MOL_PROPERTY
E
SciTegic.value.DoubleValue
45.806

@<SCITEGIC>MOL_PROPERTY
-TS
SciTegic.value.DoubleValue
33.411

@<SCITEGIC>MOL_PROPERTY
U+W
SciTegic.value.DoubleValue
24.345

@<SCITEGIC>MOL_PROPERTY
U
SciTegic.value.DoubleValue
74.534

@<SCITEGIC>MOL_PROPERTY
W
SciTegic.value.DoubleValue
-50.190

@<SCITEGIC>MOL_PROPERTY
W(PB)
SciTegic.value.DoubleValue
-52.349

@<SCITEGIC>MOL_PROPERTY
W(SA)
SciTegic.value.DoubleValue
2.159

@<SCITEGIC>MOL_PROPERTY
Valence
SciTegic.value.DoubleValue
4.948

@<SCITEGIC>MOL_PROPERTY
Coulomb
SciTegic.value.DoubleValue
69.618

@<SCITEGIC>MOL_PROPERTY
VdW
SciTegic.value.DoubleValue
-0.032

@<SCITEGIC>MOL_PROPERTY
VdW6
SciTegic.value.DoubleValue
-9.810

@<SCITEGIC>MOL_PROPERTY
VdW12
SciTegic.value.DoubleValue
9.778

@<SCITEGIC>MOL_PROPERTY
Bond
SciTegic.value.DoubleValue
0.300

@<SCITEGIC>MOL_PROPERTY
Angle
SciTegic.value.DoubleValue
1.880

@<SCITEGIC>MOL_PROPERTY
Pdih
SciTegic.value.DoubleValue
2.768

@<SCITEGIC>MOL_PROPERTY
Idih
SciTegic.value.DoubleValue
0.000

@<SCITEGIC>MOL_PROPERTY
Tether
SciTegic.value.DoubleValue
0.000

@<TRIPOS>MOLECULE
guest-s12_vm2.mol2 : vm2 ligand conformer 145
          26          25           1
SMALL
USER_CHARGES
 
@<TRIPOS>ATOM
       1    N1      20.242144   19.897827   25.512325 N.4        1 MOL1        -0.4857
       2    H1      20.351379   20.477127   24.667399 H          1 MOL1         0.3650
       3    H2      20.745729   20.408432   26.254945 H          1 MOL1         0.3650
       4    C1      20.892487   18.541737   25.298283 C.3        1 MOL1         0.0209
       5    H3      20.753526   17.968476   26.218345 H          1 MOL1         0.0967
       6    H4      21.964701   18.711508   25.171590 H          1 MOL1         0.0967
       7    C2      20.373029   17.711983   24.100375 C.3        1 MOL1        -0.1378
       8    H5      20.872892   16.735393   24.146381 H          1 MOL1         0.0993
       9    H6      19.301526   17.500943   24.210223 H          1 MOL1         0.0993
      10    C3      20.666914   18.335955   22.711519 C.3        1 MOL1        -0.1338
      11    H7      20.726439   17.516976   21.982884 H          1 MOL1         0.0993
      12    H8      21.657247   18.811768   22.717825 H          1 MOL1         0.0993
      13    C4      19.587475   19.342247   22.235106 C.3        1 MOL1        -0.1338
      14    H9      18.616075   18.833722   22.164453 H          1 MOL1         0.0993
      15    H10     19.460428   20.138702   22.975910 H          1 MOL1         0.0993
      16    C5      19.920583   20.003341   20.875377 C.3        1 MOL1        -0.1313
      17    H11     20.884160   20.527546   20.942704 H          1 MOL1         0.0993
      18    H12     19.166208   20.774400   20.664864 H          1 MOL1         0.0993
      19    C6      19.952995   19.005882   19.694821 C.3        1 MOL1        -0.2328
      20    H13     20.094938   19.538931   18.745805 H          1 MOL1         0.1004
      21    H14     19.012463   18.444044   19.626123 H          1 MOL1         0.1004
      22    H15     20.776523   18.288154   19.794732 H          1 MOL1         0.1004
      23    C7      18.772372   19.751029   25.889193 C.3        1 MOL1        -0.0781
      24    H16     18.693718   19.150453   26.797977 H          1 MOL1         0.0978
      25    H17     18.347344   20.741895   26.063973 H          1 MOL1         0.0978
      26    H18     18.237900   19.260403   25.073260 H          1 MOL1         0.0978
@<TRIPOS>BOND
    1     1     2    1
    2     1     3    1
    3     1     4    1
    4     4     5    1
    5     4     6    1
    6     4     7    1
    7     7     8    1
    8     7     9    1
    9     7    10    1
   10    10    11    1
   11    10    12    1
   12    10    13    1
   13    13    14    1
   14    13    15    1
   15    13    16    1
   16    16    17    1
   17    16    18    1
   18    16    19    1
   19    19    20    1
   20    19    21    1
   21    19    22    1
   22     1    23    1
   23    23    24    1
   24    23    25    1
   25    23    26    1
@<TRIPOS>SUBSTRUCTURE
       1 MOL1            1 RESIDUE      1      MOL     
@<SCITEGIC>MOL_PROPERTY
VM2 Rank
SciTegic.value.IntegerValue
145

@<SCITEGIC>MOL_PROPERTY
Conf_Id
SciTegic.value.IntegerValue
1071

@<SCITEGIC>MOL_PROPERTY
Probability
SciTegic.value.DoubleValue
0.01

@<SCITEGIC>MOL_PROPERTY
Sum Probability
SciTegic.value.DoubleValue
99.73

@<SCITEGIC>MOL_PROPERTY
Delta G
SciTegic.value.DoubleValue
3.764

@<SCITEGIC>MOL_PROPERTY
G
SciTegic.value.DoubleValue
79.230

@<SCITEGIC>MOL_PROPERTY
E
SciTegic.value.DoubleValue
46.554

@<SCITEGIC>MOL_PROPERTY
-TS
SciTegic.value.DoubleValue
32.676

@<SCITEGIC>MOL_PROPERTY
U+W
SciTegic.value.DoubleValue
25.092

@<SCITEGIC>MOL_PROPERTY
U
SciTegic.value.DoubleValue
75.033

@<SCITEGIC>MOL_PROPERTY
W
SciTegic.value.DoubleValue
-49.941

@<SCITEGIC>MOL_PROPERTY
W(PB)
SciTegic.value.DoubleValue
-52.156

@<SCITEGIC>MOL_PROPERTY
W(SA)
SciTegic.value.DoubleValue
2.215

@<SCITEGIC>MOL_PROPERTY
Valence
SciTegic.value.DoubleValue
4.541

@<SCITEGIC>MOL_PROPERTY
Coulomb
SciTegic.value.DoubleValue
70.171

@<SCITEGIC>MOL_PROPERTY
VdW
SciTegic.value.DoubleValue
0.322

@<SCITEGIC>MOL_PROPERTY
VdW6
SciTegic.value.DoubleValue
-8.485

@<SCITEGIC>MOL_PROPERTY
VdW12
SciTegic.value.DoubleValue
8.807

@<SCITEGIC>MOL_PROPERTY
Bond
SciTegic.value.DoubleValue
0.270

@<SCITEGIC>MOL_PROPERTY
Angle
SciTegic.value.DoubleValue
1.463

@<SCITEGIC>MOL_PROPERTY
Pdih
SciTegic.value.DoubleValue
2.808

@<SCITEGIC>MOL_PROPERTY
Idih
SciTegic.value.DoubleValue
0.000

@<SCITEGIC>MOL_PROPERTY
Tether
SciTegic.value.DoubleValue
0.000

@<TRIPOS>MOLECULE
guest-s12_vm2.mol2 : vm2 ligand conformer 146
          26          25           1
SMALL
USER_CHARGES
 
@<TRIPOS>ATOM
       1    N1      20.214681   18.952944   25.949793 N.4        1 MOL1        -0.4857
       2    H1      20.865542   19.060445   26.743666 H          1 MOL1         0.3650
       3    H2      19.633615   18.136543   26.193153 H          1 MOL1         0.3650
       4    C1      21.012533   18.674757   24.684833 C.3        1 MOL1         0.0209
       5    H3      21.911201   18.138129   24.999574 H          1 MOL1         0.0967
       6    H4      21.329829   19.628585   24.256886 H          1 MOL1         0.0967
       7    C2      20.296306   17.811162   23.620758 C.3        1 MOL1        -0.1378
       8    H5      21.038892   17.494689   22.877355 H          1 MOL1         0.0993
       9    H6      19.938739   16.886063   24.091489 H          1 MOL1         0.0993
      10    C3      19.115643   18.502571   22.891314 C.3        1 MOL1        -0.1338
      11    H7      18.296149   18.667572   23.602065 H          1 MOL1         0.0993
      12    H8      18.708204   17.809997   22.142999 H          1 MOL1         0.0993
      13    C4      19.472704   19.848428   22.203780 C.3        1 MOL1        -0.1338
      14    H9      18.571269   20.242527   21.714752 H          1 MOL1         0.0993
      15    H10     19.742600   20.590162   22.966508 H          1 MOL1         0.0993
      16    C5      20.615145   19.771577   21.159123 C.3        1 MOL1        -0.1313
      17    H11     21.554730   19.476176   21.644931 H          1 MOL1         0.0993
      18    H12     20.789121   20.779132   20.756293 H          1 MOL1         0.0993
      19    C6      20.310676   18.813102   19.985446 C.3        1 MOL1        -0.2328
      20    H13     19.366799   19.080056   19.492758 H          1 MOL1         0.1004
      21    H14     20.239382   17.772004   20.323800 H          1 MOL1         0.1004
      22    H15     21.107815   18.861784   19.232437 H          1 MOL1         0.1004
      23    C7      19.370311   20.215458   25.821954 C.3        1 MOL1        -0.0781
      24    H16     18.639840   20.089886   25.022257 H          1 MOL1         0.0978
      25    H17     18.851492   20.393799   26.766441 H          1 MOL1         0.0978
      26    H18     20.023585   21.061095   25.596504 H          1 MOL1         0.0978
@<TRIPOS>BOND
    1     1     2    1
    2     1     3    1
    3     1     4    1
    4     4     5    1
    5     4     6    1
    6     4     7    1
    7     7     8    1
    8     7     9    1
    9     7    10    1
   10    10    11    1
   11    10    12    1
   12    10    13    1
   13    13    14    1
   14    13    15    1
   15    13    16    1
   16    16    17    1
   17    16    18    1
   18    16    19    1
   19    19    20    1
   20    19    21    1
   21    19    22    1
   22     1    23    1
   23    23    24    1
   24    23    25    1
   25    23    26    1
@<TRIPOS>SUBSTRUCTURE
       1 MOL1            1 RESIDUE      1      MOL     
@<SCITEGIC>MOL_PROPERTY
VM2 Rank
SciTegic.value.IntegerValue
146

@<SCITEGIC>MOL_PROPERTY
Conf_Id
SciTegic.value.IntegerValue
572

@<SCITEGIC>MOL_PROPERTY
Probability
SciTegic.value.DoubleValue
0.01

@<SCITEGIC>MOL_PROPERTY
Sum Probability
SciTegic.value.DoubleValue
99.74

@<SCITEGIC>MOL_PROPERTY
Delta G
SciTegic.value.DoubleValue
3.781

@<SCITEGIC>MOL_PROPERTY
G
SciTegic.value.DoubleValue
79.247

@<SCITEGIC>MOL_PROPERTY
E
SciTegic.value.DoubleValue
45.835

@<SCITEGIC>MOL_PROPERTY
-TS
SciTegic.value.DoubleValue
33.411

@<SCITEGIC>MOL_PROPERTY
U+W
SciTegic.value.DoubleValue
24.374

@<SCITEGIC>MOL_PROPERTY
U
SciTegic.value.DoubleValue
74.535

@<SCITEGIC>MOL_PROPERTY
W
SciTegic.value.DoubleValue
-50.161

@<SCITEGIC>MOL_PROPERTY
W(PB)
SciTegic.value.DoubleValue
-52.306

@<SCITEGIC>MOL_PROPERTY
W(SA)
SciTegic.value.DoubleValue
2.145

@<SCITEGIC>MOL_PROPERTY
Valence
SciTegic.value.DoubleValue
4.948

@<SCITEGIC>MOL_PROPERTY
Coulomb
SciTegic.value.DoubleValue
69.618

@<SCITEGIC>MOL_PROPERTY
VdW
SciTegic.value.DoubleValue
-0.032

@<SCITEGIC>MOL_PROPERTY
VdW6
SciTegic.value.DoubleValue
-9.810

@<SCITEGIC>MOL_PROPERTY
VdW12
SciTegic.value.DoubleValue
9.778

@<SCITEGIC>MOL_PROPERTY
Bond
SciTegic.value.DoubleValue
0.300

@<SCITEGIC>MOL_PROPERTY
Angle
SciTegic.value.DoubleValue
1.880

@<SCITEGIC>MOL_PROPERTY
Pdih
SciTegic.value.DoubleValue
2.768

@<SCITEGIC>MOL_PROPERTY
Idih
SciTegic.value.DoubleValue
0.000

@<SCITEGIC>MOL_PROPERTY
Tether
SciTegic.value.DoubleValue
0.000

@<TRIPOS>MOLECULE
guest-s12_vm2.mol2 : vm2 ligand conformer 147
          26          25           1
SMALL
USER_CHARGES
 
@<TRIPOS>ATOM
       1    N1      19.240237   18.836306   25.789506 N.4        1 MOL1        -0.4857
       2    H1      19.782150   18.215527   26.410229 H          1 MOL1         0.3650
       3    H2      18.251528   18.628915   26.002146 H          1 MOL1         0.3650
       4    C1      19.528308   18.507227   24.334732 C.3        1 MOL1         0.0209
       5    H3      18.972906   19.216026   23.718880 H          1 MOL1         0.0967
       6    H4      19.128097   17.508526   24.142577 H          1 MOL1         0.0967
       7    C2      21.026208   18.524217   23.960434 C.3        1 MOL1        -0.1378
       8    H5      21.463907   19.510807   24.159160 H          1 MOL1         0.0993
       9    H6      21.548082   17.816413   24.617891 H          1 MOL1         0.0993
      10    C3      21.292465   18.117975   22.488589 C.3        1 MOL1        -0.1338
      11    H7      20.622499   17.300034   22.191654 H          1 MOL1         0.0993
      12    H8      22.306357   17.698056   22.433308 H          1 MOL1         0.0993
      13    C4      21.220258   19.284976   21.466409 C.3        1 MOL1        -0.1338
      14    H9      21.972512   20.039272   21.735391 H          1 MOL1         0.0993
      15    H10     21.522752   18.903616   20.481355 H          1 MOL1         0.0993
      16    C5      19.845986   19.984822   21.322057 C.3        1 MOL1        -0.1313
      17    H11     19.944162   20.791903   20.582625 H          1 MOL1         0.0993
      18    H12     19.570175   20.479768   22.261785 H          1 MOL1         0.0993
      19    C6      18.716523   19.033875   20.863788 C.3        1 MOL1        -0.2328
      20    H13     18.516846   18.251268   21.605254 H          1 MOL1         0.1004
      21    H14     18.974742   18.546359   19.914801 H          1 MOL1         0.1004
      22    H15     17.783225   19.590991   20.710784 H          1 MOL1         0.1004
      23    C7      19.538013   20.300601   26.091486 C.3        1 MOL1        -0.0781
      24    H16     18.936814   20.932018   25.433711 H          1 MOL1         0.0978
      25    H17     19.285815   20.508615   27.133695 H          1 MOL1         0.0978
      26    H18     20.599172   20.496040   25.924985 H          1 MOL1         0.0978
@<TRIPOS>BOND
    1     1     2    1
    2     1     3    1
    3     1     4    1
    4     4     5    1
    5     4     6    1
    6     4     7    1
    7     7     8    1
    8     7     9    1
    9     7    10    1
   10    10    11    1
   11    10    12    1
   12    10    13    1
   13    13    14    1
   14    13    15    1
   15    13    16    1
   16    16    17    1
   17    16    18    1
   18    16    19    1
   19    19    20    1
   20    19    21    1
   21    19    22    1
   22     1    23    1
   23    23    24    1
   24    23    25    1
   25    23    26    1
@<TRIPOS>SUBSTRUCTURE
       1 MOL1            1 RESIDUE      1      MOL     
@<SCITEGIC>MOL_PROPERTY
VM2 Rank
SciTegic.value.IntegerValue
147

@<SCITEGIC>MOL_PROPERTY
Conf_Id
SciTegic.value.IntegerValue
1114

@<SCITEGIC>MOL_PROPERTY
Probability
SciTegic.value.DoubleValue
0.01

@<SCITEGIC>MOL_PROPERTY
Sum Probability
SciTegic.value.DoubleValue
99.75

@<SCITEGIC>MOL_PROPERTY
Delta G
SciTegic.value.DoubleValue
3.788

@<SCITEGIC>MOL_PROPERTY
G
SciTegic.value.DoubleValue
79.254

@<SCITEGIC>MOL_PROPERTY
E
SciTegic.value.DoubleValue
46.120

@<SCITEGIC>MOL_PROPERTY
-TS
SciTegic.value.DoubleValue
33.134

@<SCITEGIC>MOL_PROPERTY
U+W
SciTegic.value.DoubleValue
24.658

@<SCITEGIC>MOL_PROPERTY
U
SciTegic.value.DoubleValue
74.630

@<SCITEGIC>MOL_PROPERTY
W
SciTegic.value.DoubleValue
-49.972

@<SCITEGIC>MOL_PROPERTY
W(PB)
SciTegic.value.DoubleValue
-52.193

@<SCITEGIC>MOL_PROPERTY
W(SA)
SciTegic.value.DoubleValue
2.220

@<SCITEGIC>MOL_PROPERTY
Valence
SciTegic.value.DoubleValue
4.879

@<SCITEGIC>MOL_PROPERTY
Coulomb
SciTegic.value.DoubleValue
69.648

@<SCITEGIC>MOL_PROPERTY
VdW
SciTegic.value.DoubleValue
0.103

@<SCITEGIC>MOL_PROPERTY
VdW6
SciTegic.value.DoubleValue
-8.909

@<SCITEGIC>MOL_PROPERTY
VdW12
SciTegic.value.DoubleValue
9.013

@<SCITEGIC>MOL_PROPERTY
Bond
SciTegic.value.DoubleValue
0.274

@<SCITEGIC>MOL_PROPERTY
Angle
SciTegic.value.DoubleValue
1.757

@<SCITEGIC>MOL_PROPERTY
Pdih
SciTegic.value.DoubleValue
2.848

@<SCITEGIC>MOL_PROPERTY
Idih
SciTegic.value.DoubleValue
0.000

@<SCITEGIC>MOL_PROPERTY
Tether
SciTegic.value.DoubleValue
0.000

@<TRIPOS>MOLECULE
guest-s12_vm2.mol2 : vm2 ligand conformer 148
          26          25           1
SMALL
USER_CHARGES
 
@<TRIPOS>ATOM
       1    N1      20.285706   19.128976   25.932981 N.4        1 MOL1        -0.4857
       2    H1      20.971200   19.821043   25.594884 H          1 MOL1         0.3650
       3    H2      20.827693   18.270945   26.119240 H          1 MOL1         0.3650
       4    C1      19.241882   18.865167   24.864938 C.3        1 MOL1         0.0209
       5    H3      18.697382   19.796149   24.688230 H          1 MOL1         0.0967
       6    H4      18.539381   18.129956   25.265651 H          1 MOL1         0.0967
       7    C2      19.822948   18.344355   23.535613 C.3        1 MOL1        -0.1378
       8    H5      20.373792   17.412292   23.718904 H          1 MOL1         0.0993
       9    H6      18.987705   18.082145   22.876663 H          1 MOL1         0.0993
      10    C3      20.749267   19.376736   22.843408 C.3        1 MOL1        -0.1338
      11    H7      21.617178   19.557353   23.491511 H          1 MOL1         0.0993
      12    H8      20.237136   20.343803   22.743551 H          1 MOL1         0.0993
      13    C4      21.269581   18.905985   21.459936 C.3        1 MOL1        -0.1338
      14    H9      22.297913   19.273577   21.337673 H          1 MOL1         0.0993
      15    H10     21.342724   17.810038   21.432139 H          1 MOL1         0.0993
      16    C5      20.446062   19.416381   20.249615 C.3        1 MOL1        -0.1313
      17    H11     20.942360   19.086132   19.326318 H          1 MOL1         0.0993
      18    H12     20.465259   20.515004   20.228064 H          1 MOL1         0.0993
      19    C6      18.980578   18.929401   20.224938 C.3        1 MOL1        -0.2328
      20    H13     18.399903   19.369920   21.044694 H          1 MOL1         0.1004
      21    H14     18.924710   17.836009   20.303597 H          1 MOL1         0.1004
      22    H15     18.494868   19.223161   19.285428 H          1 MOL1         0.1004
      23    C7      19.611977   19.622999   27.205571 C.3        1 MOL1        -0.0781
      24    H16     19.071771   20.547535   26.990285 H          1 MOL1         0.0978
      25    H17     18.914844   18.861325   27.561646 H          1 MOL1         0.0978
      26    H18     20.374249   19.809424   27.965377 H          1 MOL1         0.0978
@<TRIPOS>BOND
    1     1     2    1
    2     1     3    1
    3     1     4    1
    4     4     5    1
    5     4     6    1
    6     4     7    1
    7     7     8    1
    8     7     9    1
    9     7    10    1
   10    10    11    1
   11    10    12    1
   12    10    13    1
   13    13    14    1
   14    13    15    1
   15    13    16    1
   16    16    17    1
   17    16    18    1
   18    16    19    1
   19    19    20    1
   20    19    21    1
   21    19    22    1
   22     1    23    1
   23    23    24    1
   24    23    25    1
   25    23    26    1
@<TRIPOS>SUBSTRUCTURE
       1 MOL1            1 RESIDUE      1      MOL     
@<SCITEGIC>MOL_PROPERTY
VM2 Rank
SciTegic.value.IntegerValue
148

@<SCITEGIC>MOL_PROPERTY
Conf_Id
SciTegic.value.IntegerValue
1594

@<SCITEGIC>MOL_PROPERTY
Probability
SciTegic.value.DoubleValue
0.01

@<SCITEGIC>MOL_PROPERTY
Sum Probability
SciTegic.value.DoubleValue
99.77

@<SCITEGIC>MOL_PROPERTY
Delta G
SciTegic.value.DoubleValue
3.795

@<SCITEGIC>MOL_PROPERTY
G
SciTegic.value.DoubleValue
79.261

@<SCITEGIC>MOL_PROPERTY
E
SciTegic.value.DoubleValue
46.642

@<SCITEGIC>MOL_PROPERTY
-TS
SciTegic.value.DoubleValue
32.618

@<SCITEGIC>MOL_PROPERTY
U+W
SciTegic.value.DoubleValue
25.180

@<SCITEGIC>MOL_PROPERTY
U
SciTegic.value.DoubleValue
74.517

@<SCITEGIC>MOL_PROPERTY
W
SciTegic.value.DoubleValue
-49.336

@<SCITEGIC>MOL_PROPERTY
W(PB)
SciTegic.value.DoubleValue
-51.570

@<SCITEGIC>MOL_PROPERTY
W(SA)
SciTegic.value.DoubleValue
2.234

@<SCITEGIC>MOL_PROPERTY
Valence
SciTegic.value.DoubleValue
4.842

@<SCITEGIC>MOL_PROPERTY
Coulomb
SciTegic.value.DoubleValue
69.332

@<SCITEGIC>MOL_PROPERTY
VdW
SciTegic.value.DoubleValue
0.342

@<SCITEGIC>MOL_PROPERTY
VdW6
SciTegic.value.DoubleValue
-7.369

@<SCITEGIC>MOL_PROPERTY
VdW12
SciTegic.value.DoubleValue
7.711

@<SCITEGIC>MOL_PROPERTY
Bond
SciTegic.value.DoubleValue
0.232

@<SCITEGIC>MOL_PROPERTY
Angle
SciTegic.value.DoubleValue
1.153

@<SCITEGIC>MOL_PROPERTY
Pdih
SciTegic.value.DoubleValue
3.457

@<SCITEGIC>MOL_PROPERTY
Idih
SciTegic.value.DoubleValue
0.000

@<SCITEGIC>MOL_PROPERTY
Tether
SciTegic.value.DoubleValue
0.000

@<TRIPOS>MOLECULE
guest-s12_vm2.mol2 : vm2 ligand conformer 149
          26          25           1
SMALL
USER_CHARGES
 
@<TRIPOS>ATOM
       1    N1      19.625490   19.061467   25.909626 N.4        1 MOL1        -0.4857
       2    H1      19.256217   18.110401   26.063808 H          1 MOL1         0.3650
       3    H2      18.839766   19.603209   25.519344 H          1 MOL1         0.3650
       4    C1      20.773208   19.021286   24.919173 C.3        1 MOL1         0.0209
       5    H3      21.579769   18.440049   25.373305 H          1 MOL1         0.0967
       6    H4      21.129722   20.044206   24.774376 H          1 MOL1         0.0967
       7    C2      20.403628   18.403510   23.556181 C.3        1 MOL1        -0.1378
       8    H5      21.318633   18.319816   22.959221 H          1 MOL1         0.0993
       9    H6      20.040582   17.378237   23.707100 H          1 MOL1         0.0993
      10    C3      19.338963   19.232838   22.793469 C.3        1 MOL1        -0.1338
      11    H7      19.651280   20.283999   22.722857 H          1 MOL1         0.0993
      12    H8      18.409244   19.230087   23.377886 H          1 MOL1         0.0993
      13    C4      19.022466   18.676800   21.380325 C.3        1 MOL1        -0.1338
      14    H9      19.173931   17.588842   21.355255 H          1 MOL1         0.0993
      15    H10     17.952279   18.830368   21.183716 H          1 MOL1         0.0993
      16    C5      19.808874   19.351460   20.227085 C.3        1 MOL1        -0.1313
      17    H11     19.570120   20.423778   20.196471 H          1 MOL1         0.0993
      18    H12     19.455273   18.934598   19.273646 H          1 MOL1         0.0993
      19    C6      21.340503   19.170146   20.308581 C.3        1 MOL1        -0.2328
      20    H13     21.821599   19.562654   19.403390 H          1 MOL1         0.1004
      21    H14     21.610036   18.109927   20.398605 H          1 MOL1         0.1004
      22    H15     21.761552   19.712702   21.163911 H          1 MOL1         0.1004
      23    C7      20.094867   19.672493   27.222559 C.3        1 MOL1        -0.0781
      24    H16     19.259418   19.695796   27.925837 H          1 MOL1         0.0978
      25    H17     20.904829   19.064868   27.632052 H          1 MOL1         0.0978
      26    H18     20.450907   20.688567   27.038809 H          1 MOL1         0.0978
@<TRIPOS>BOND
    1     1     2    1
    2     1     3    1
    3     1     4    1
    4     4     5    1
    5     4     6    1
    6     4     7    1
    7     7     8    1
    8     7     9    1
    9     7    10    1
   10    10    11    1
   11    10    12    1
   12    10    13    1
   13    13    14    1
   14    13    15    1
   15    13    16    1
   16    16    17    1
   17    16    18    1
   18    16    19    1
   19    19    20    1
   20    19    21    1
   21    19    22    1
   22     1    23    1
   23    23    24    1
   24    23    25    1
   25    23    26    1
@<TRIPOS>SUBSTRUCTURE
       1 MOL1            1 RESIDUE      1      MOL     
@<SCITEGIC>MOL_PROPERTY
VM2 Rank
SciTegic.value.IntegerValue
149

@<SCITEGIC>MOL_PROPERTY
Conf_Id
SciTegic.value.IntegerValue
1117

@<SCITEGIC>MOL_PROPERTY
Probability
SciTegic.value.DoubleValue
0.01

@<SCITEGIC>MOL_PROPERTY
Sum Probability
SciTegic.value.DoubleValue
99.78

@<SCITEGIC>MOL_PROPERTY
Delta G
SciTegic.value.DoubleValue
3.837

@<SCITEGIC>MOL_PROPERTY
G
SciTegic.value.DoubleValue
79.303

@<SCITEGIC>MOL_PROPERTY
E
SciTegic.value.DoubleValue
46.685

@<SCITEGIC>MOL_PROPERTY
-TS
SciTegic.value.DoubleValue
32.618

@<SCITEGIC>MOL_PROPERTY
U+W
SciTegic.value.DoubleValue
25.223

@<SCITEGIC>MOL_PROPERTY
U
SciTegic.value.DoubleValue
74.517

@<SCITEGIC>MOL_PROPERTY
W
SciTegic.value.DoubleValue
-49.294

@<SCITEGIC>MOL_PROPERTY
W(PB)
SciTegic.value.DoubleValue
-51.561

@<SCITEGIC>MOL_PROPERTY
W(SA)
SciTegic.value.DoubleValue
2.267

@<SCITEGIC>MOL_PROPERTY
Valence
SciTegic.value.DoubleValue
4.842

@<SCITEGIC>MOL_PROPERTY
Coulomb
SciTegic.value.DoubleValue
69.332

@<SCITEGIC>MOL_PROPERTY
VdW
SciTegic.value.DoubleValue
0.342

@<SCITEGIC>MOL_PROPERTY
VdW6
SciTegic.value.DoubleValue
-7.369

@<SCITEGIC>MOL_PROPERTY
VdW12
SciTegic.value.DoubleValue
7.711

@<SCITEGIC>MOL_PROPERTY
Bond
SciTegic.value.DoubleValue
0.232

@<SCITEGIC>MOL_PROPERTY
Angle
SciTegic.value.DoubleValue
1.153

@<SCITEGIC>MOL_PROPERTY
Pdih
SciTegic.value.DoubleValue
3.457

@<SCITEGIC>MOL_PROPERTY
Idih
SciTegic.value.DoubleValue
0.000

@<SCITEGIC>MOL_PROPERTY
Tether
SciTegic.value.DoubleValue
0.000

@<TRIPOS>MOLECULE
guest-s12_vm2.mol2 : vm2 ligand conformer 150
          26          25           1
SMALL
USER_CHARGES
 
@<TRIPOS>ATOM
       1    N1      19.137921   19.685447   25.285419 N.4        1 MOL1        -0.4857
       2    H1      18.125624   19.813447   25.442286 H          1 MOL1         0.3650
       3    H2      19.422444   20.485743   24.701687 H          1 MOL1         0.3650
       4    C1      19.376399   18.382010   24.538792 C.3        1 MOL1         0.0209
       5    H3      18.703653   18.373815   23.680569 H          1 MOL1         0.0967
       6    H4      19.075812   17.566453   25.201349 H          1 MOL1         0.0967
       7    C2      20.830052   18.144713   24.064759 C.3        1 MOL1        -0.1378
       8    H5      21.475989   18.082595   24.949956 H          1 MOL1         0.0993
       9    H6      20.896738   17.160966   23.581863 H          1 MOL1         0.0993
      10    C3      21.394376   19.232301   23.111071 C.3        1 MOL1        -0.1338
      11    H7      22.490481   19.203303   23.182599 H          1 MOL1         0.0993
      12    H8      21.108517   20.234943   23.453789 H          1 MOL1         0.0993
      13    C4      21.026168   19.056514   21.614626 C.3        1 MOL1        -0.1338
      14    H9      21.562048   19.825829   21.041509 H          1 MOL1         0.0993
      15    H10     21.405854   18.090605   21.253934 H          1 MOL1         0.0993
      16    C5      19.515947   19.163885   21.301150 C.3        1 MOL1        -0.1313
      17    H11     19.096005   20.059878   21.778839 H          1 MOL1         0.0993
      18    H12     18.986425   18.295239   21.711993 H          1 MOL1         0.0993
      19    C6      19.252986   19.223823   19.781164 C.3        1 MOL1        -0.2328
      20    H13     18.176344   19.285850   19.576211 H          1 MOL1         0.1004
      21    H14     19.640564   18.328355   19.278016 H          1 MOL1         0.1004
      22    H15     19.731821   20.103179   19.331017 H          1 MOL1         0.1004
      23    C7      19.874151   19.701308   26.620020 C.3        1 MOL1        -0.0781
      24    H16     20.948808   19.630828   26.440391 H          1 MOL1         0.0978
      25    H17     19.649448   20.634636   27.141004 H          1 MOL1         0.0978
      26    H18     19.542162   18.853301   27.222871 H          1 MOL1         0.0978
@<TRIPOS>BOND
    1     1     2    1
    2     1     3    1
    3     1     4    1
    4     4     5    1
    5     4     6    1
    6     4     7    1
    7     7     8    1
    8     7     9    1
    9     7    10    1
   10    10    11    1
   11    10    12    1
   12    10    13    1
   13    13    14    1
   14    13    15    1
   15    13    16    1
   16    16    17    1
   17    16    18    1
   18    16    19    1
   19    19    20    1
   20    19    21    1
   21    19    22    1
   22     1    23    1
   23    23    24    1
   24    23    25    1
   25    23    26    1
@<TRIPOS>SUBSTRUCTURE
       1 MOL1            1 RESIDUE      1      MOL     
@<SCITEGIC>MOL_PROPERTY
VM2 Rank
SciTegic.value.IntegerValue
150

@<SCITEGIC>MOL_PROPERTY
Conf_Id
SciTegic.value.IntegerValue
752

@<SCITEGIC>MOL_PROPERTY
Probability
SciTegic.value.DoubleValue
0.01

@<SCITEGIC>MOL_PROPERTY
Sum Probability
SciTegic.value.DoubleValue
99.79

@<SCITEGIC>MOL_PROPERTY
Delta G
SciTegic.value.DoubleValue
3.854

@<SCITEGIC>MOL_PROPERTY
G
SciTegic.value.DoubleValue
79.320

@<SCITEGIC>MOL_PROPERTY
E
SciTegic.value.DoubleValue
46.729

@<SCITEGIC>MOL_PROPERTY
-TS
SciTegic.value.DoubleValue
32.591

@<SCITEGIC>MOL_PROPERTY
U+W
SciTegic.value.DoubleValue
25.267

@<SCITEGIC>MOL_PROPERTY
U
SciTegic.value.DoubleValue
75.224

@<SCITEGIC>MOL_PROPERTY
W
SciTegic.value.DoubleValue
-49.957

@<SCITEGIC>MOL_PROPERTY
W(PB)
SciTegic.value.DoubleValue
-52.194

@<SCITEGIC>MOL_PROPERTY
W(SA)
SciTegic.value.DoubleValue
2.236

@<SCITEGIC>MOL_PROPERTY
Valence
SciTegic.value.DoubleValue
4.592

@<SCITEGIC>MOL_PROPERTY
Coulomb
SciTegic.value.DoubleValue
70.315

@<SCITEGIC>MOL_PROPERTY
VdW
SciTegic.value.DoubleValue
0.317

@<SCITEGIC>MOL_PROPERTY
VdW6
SciTegic.value.DoubleValue
-8.476

@<SCITEGIC>MOL_PROPERTY
VdW12
SciTegic.value.DoubleValue
8.793

@<SCITEGIC>MOL_PROPERTY
Bond
SciTegic.value.DoubleValue
0.276

@<SCITEGIC>MOL_PROPERTY
Angle
SciTegic.value.DoubleValue
1.614

@<SCITEGIC>MOL_PROPERTY
Pdih
SciTegic.value.DoubleValue
2.702

@<SCITEGIC>MOL_PROPERTY
Idih
SciTegic.value.DoubleValue
0.000

@<SCITEGIC>MOL_PROPERTY
Tether
SciTegic.value.DoubleValue
0.000

@<TRIPOS>MOLECULE
guest-s12_vm2.mol2 : vm2 ligand conformer 151
          26          25           1
SMALL
USER_CHARGES
 
@<TRIPOS>ATOM
       1    N1      19.361740   19.268174   25.684269 N.4        1 MOL1        -0.4857
       2    H1      18.450399   18.885693   25.388076 H          1 MOL1         0.3650
       3    H2      19.367786   20.248196   25.363732 H          1 MOL1         0.3650
       4    C1      20.489917   18.498327   25.025228 C.3        1 MOL1         0.0209
       5    H3      20.445029   17.469256   25.390745 H          1 MOL1         0.0967
       6    H4      21.435023   18.936757   25.355347 H          1 MOL1         0.0967
       7    C2      20.428800   18.497227   23.485115 C.3        1 MOL1        -0.1378
       8    H5      21.228036   17.846873   23.105794 H          1 MOL1         0.0993
       9    H6      19.476729   18.054916   23.166594 H          1 MOL1         0.0993
      10    C3      20.588003   19.914082   22.882627 C.3        1 MOL1        -0.1338
      11    H7      21.463827   20.397518   23.337537 H          1 MOL1         0.0993
      12    H8      19.721529   20.532554   23.152454 H          1 MOL1         0.0993
      13    C4      20.767345   19.937006   21.342451 C.3        1 MOL1        -0.1338
      14    H9      20.924943   20.982923   21.044552 H          1 MOL1         0.0993
      15    H10     21.688321   19.408382   21.060360 H          1 MOL1         0.0993
      16    C5      19.562783   19.383868   20.537502 C.3        1 MOL1        -0.1313
      17    H11     19.472139   19.959308   19.605482 H          1 MOL1         0.0993
      18    H12     18.626166   19.551388   21.087292 H          1 MOL1         0.0993
      19    C6      19.705957   17.890379   20.161330 C.3        1 MOL1        -0.2328
      20    H13     18.842394   17.559399   19.570047 H          1 MOL1         0.1004
      21    H14     19.768757   17.245401   21.044375 H          1 MOL1         0.1004
      22    H15     20.606425   17.723228   19.556153 H          1 MOL1         0.1004
      23    C7      19.503454   19.200939   27.198477 C.3        1 MOL1        -0.0781
      24    H16     19.462938   18.156944   27.516849 H          1 MOL1         0.0978
      25    H17     20.460395   19.639734   27.489435 H          1 MOL1         0.0978
      26    H18     18.685950   19.759311   27.660020 H          1 MOL1         0.0978
@<TRIPOS>BOND
    1     1     2    1
    2     1     3    1
    3     1     4    1
    4     4     5    1
    5     4     6    1
    6     4     7    1
    7     7     8    1
    8     7     9    1
    9     7    10    1
   10    10    11    1
   11    10    12    1
   12    10    13    1
   13    13    14    1
   14    13    15    1
   15    13    16    1
   16    16    17    1
   17    16    18    1
   18    16    19    1
   19    19    20    1
   20    19    21    1
   21    19    22    1
   22     1    23    1
   23    23    24    1
   24    23    25    1
   25    23    26    1
@<TRIPOS>SUBSTRUCTURE
       1 MOL1            1 RESIDUE      1      MOL     
@<SCITEGIC>MOL_PROPERTY
VM2 Rank
SciTegic.value.IntegerValue
151

@<SCITEGIC>MOL_PROPERTY
Conf_Id
SciTegic.value.IntegerValue
438

@<SCITEGIC>MOL_PROPERTY
Probability
SciTegic.value.DoubleValue
0.01

@<SCITEGIC>MOL_PROPERTY
Sum Probability
SciTegic.value.DoubleValue
99.80

@<SCITEGIC>MOL_PROPERTY
Delta G
SciTegic.value.DoubleValue
3.878

@<SCITEGIC>MOL_PROPERTY
G
SciTegic.value.DoubleValue
79.344

@<SCITEGIC>MOL_PROPERTY
E
SciTegic.value.DoubleValue
46.758

@<SCITEGIC>MOL_PROPERTY
-TS
SciTegic.value.DoubleValue
32.585

@<SCITEGIC>MOL_PROPERTY
U+W
SciTegic.value.DoubleValue
25.297

@<SCITEGIC>MOL_PROPERTY
U
SciTegic.value.DoubleValue
74.608

@<SCITEGIC>MOL_PROPERTY
W
SciTegic.value.DoubleValue
-49.312

@<SCITEGIC>MOL_PROPERTY
W(PB)
SciTegic.value.DoubleValue
-51.564

@<SCITEGIC>MOL_PROPERTY
W(SA)
SciTegic.value.DoubleValue
2.252

@<SCITEGIC>MOL_PROPERTY
Valence
SciTegic.value.DoubleValue
4.823

@<SCITEGIC>MOL_PROPERTY
Coulomb
SciTegic.value.DoubleValue
69.470

@<SCITEGIC>MOL_PROPERTY
VdW
SciTegic.value.DoubleValue
0.315

@<SCITEGIC>MOL_PROPERTY
VdW6
SciTegic.value.DoubleValue
-7.375

@<SCITEGIC>MOL_PROPERTY
VdW12
SciTegic.value.DoubleValue
7.690

@<SCITEGIC>MOL_PROPERTY
Bond
SciTegic.value.DoubleValue
0.227

@<SCITEGIC>MOL_PROPERTY
Angle
SciTegic.value.DoubleValue
1.209

@<SCITEGIC>MOL_PROPERTY
Pdih
SciTegic.value.DoubleValue
3.386

@<SCITEGIC>MOL_PROPERTY
Idih
SciTegic.value.DoubleValue
0.000

@<SCITEGIC>MOL_PROPERTY
Tether
SciTegic.value.DoubleValue
0.000

@<TRIPOS>MOLECULE
guest-s12_vm2.mol2 : vm2 ligand conformer 152
          26          25           1
SMALL
USER_CHARGES
 
@<TRIPOS>ATOM
       1    N1      19.706918   18.742261   25.880562 N.4        1 MOL1        -0.4857
       2    H1      19.742118   17.713382   25.811093 H          1 MOL1         0.3650
       3    H2      18.754345   19.006383   25.587539 H          1 MOL1         0.3650
       4    C1      20.730488   19.363293   24.949483 C.3        1 MOL1         0.0209
       5    H3      21.719823   19.057289   25.299038 H          1 MOL1         0.0967
       6    H4      20.657071   20.449761   25.042434 H          1 MOL1         0.0967
       7    C2      20.563975   18.956238   23.471975 C.3        1 MOL1        -0.1378
       8    H5      21.420759   19.356446   22.916256 H          1 MOL1         0.0993
       9    H6      20.607994   17.862572   23.384832 H          1 MOL1         0.0993
      10    C3      19.251370   19.490134   22.848144 C.3        1 MOL1        -0.1338
      11    H7      19.258025   20.588730   22.871763 H          1 MOL1         0.0993
      12    H8      18.398916   19.177151   23.465077 H          1 MOL1         0.0993
      13    C4      18.990799   19.008524   21.397120 C.3        1 MOL1        -0.1338
      14    H9      18.874095   17.916180   21.376859 H          1 MOL1         0.0993
      15    H10     18.018693   19.414426   21.084404 H          1 MOL1         0.0993
      16    C5      20.054463   19.453639   20.360156 C.3        1 MOL1        -0.1313
      17    H11     20.516496   20.401722   20.668833 H          1 MOL1         0.0993
      18    H12     19.548292   19.661629   19.406979 H          1 MOL1         0.0993
      19    C6      21.141602   18.384974   20.097983 C.3        1 MOL1        -0.2328
      20    H13     20.695009   17.457483   19.716720 H          1 MOL1         0.1004
      21    H14     21.706521   18.138858   21.003706 H          1 MOL1         0.1004
      22    H15     21.857646   18.742121   19.346560 H          1 MOL1         0.1004
      23    C7      19.968385   19.190936   27.311578 C.3        1 MOL1        -0.0781
      24    H16     20.969547   18.872637   27.610398 H          1 MOL1         0.0978
      25    H17     19.894412   20.279291   27.365890 H          1 MOL1         0.0978
      26    H18     19.224984   18.737228   27.970838 H          1 MOL1         0.0978
@<TRIPOS>BOND
    1     1     2    1
    2     1     3    1
    3     1     4    1
    4     4     5    1
    5     4     6    1
    6     4     7    1
    7     7     8    1
    8     7     9    1
    9     7    10    1
   10    10    11    1
   11    10    12    1
   12    10    13    1
   13    13    14    1
   14    13    15    1
   15    13    16    1
   16    16    17    1
   17    16    18    1
   18    16    19    1
   19    19    20    1
   20    19    21    1
   21    19    22    1
   22     1    23    1
   23    23    24    1
   24    23    25    1
   25    23    26    1
@<TRIPOS>SUBSTRUCTURE
       1 MOL1            1 RESIDUE      1      MOL     
@<SCITEGIC>MOL_PROPERTY
VM2 Rank
SciTegic.value.IntegerValue
152

@<SCITEGIC>MOL_PROPERTY
Conf_Id
SciTegic.value.IntegerValue
252

@<SCITEGIC>MOL_PROPERTY
Probability
SciTegic.value.DoubleValue
0.01

@<SCITEGIC>MOL_PROPERTY
Sum Probability
SciTegic.value.DoubleValue
99.81

@<SCITEGIC>MOL_PROPERTY
Delta G
SciTegic.value.DoubleValue
3.878

@<SCITEGIC>MOL_PROPERTY
G
SciTegic.value.DoubleValue
79.344

@<SCITEGIC>MOL_PROPERTY
E
SciTegic.value.DoubleValue
46.765

@<SCITEGIC>MOL_PROPERTY
-TS
SciTegic.value.DoubleValue
32.579

@<SCITEGIC>MOL_PROPERTY
U+W
SciTegic.value.DoubleValue
25.303

@<SCITEGIC>MOL_PROPERTY
U
SciTegic.value.DoubleValue
74.594

@<SCITEGIC>MOL_PROPERTY
W
SciTegic.value.DoubleValue
-49.291

@<SCITEGIC>MOL_PROPERTY
W(PB)
SciTegic.value.DoubleValue
-51.538

@<SCITEGIC>MOL_PROPERTY
W(SA)
SciTegic.value.DoubleValue
2.247

@<SCITEGIC>MOL_PROPERTY
Valence
SciTegic.value.DoubleValue
4.886

@<SCITEGIC>MOL_PROPERTY
Coulomb
SciTegic.value.DoubleValue
69.331

@<SCITEGIC>MOL_PROPERTY
VdW
SciTegic.value.DoubleValue
0.376

@<SCITEGIC>MOL_PROPERTY
VdW6
SciTegic.value.DoubleValue
-7.329

@<SCITEGIC>MOL_PROPERTY
VdW12
SciTegic.value.DoubleValue
7.706

@<SCITEGIC>MOL_PROPERTY
Bond
SciTegic.value.DoubleValue
0.232

@<SCITEGIC>MOL_PROPERTY
Angle
SciTegic.value.DoubleValue
1.251

@<SCITEGIC>MOL_PROPERTY
Pdih
SciTegic.value.DoubleValue
3.403

@<SCITEGIC>MOL_PROPERTY
Idih
SciTegic.value.DoubleValue
0.000

@<SCITEGIC>MOL_PROPERTY
Tether
SciTegic.value.DoubleValue
0.000

@<TRIPOS>MOLECULE
guest-s12_vm2.mol2 : vm2 ligand conformer 153
          26          25           1
SMALL
USER_CHARGES
 
@<TRIPOS>ATOM
       1    N1      20.272766   18.800079   25.900582 N.4        1 MOL1        -0.4857
       2    H1      21.170373   19.253461   25.673057 H          1 MOL1         0.3650
       3    H2      20.451306   17.785863   25.836188 H          1 MOL1         0.3650
       4    C1      19.212477   19.207926   24.895728 C.3        1 MOL1         0.0209
       5    H3      19.057918   20.286088   24.985837 H          1 MOL1         0.0967
       6    H4      18.283498   18.705625   25.177335 H          1 MOL1         0.0967
       7    C2      19.560914   18.853607   23.436449 C.3        1 MOL1        -0.1378
       8    H5      19.745403   17.774326   23.354275 H          1 MOL1         0.0993
       9    H6      18.681894   19.076067   22.819274 H          1 MOL1         0.0993
      10    C3      20.778638   19.646626   22.902219 C.3        1 MOL1        -0.1338
      11    H7      21.631460   19.508331   23.579575 H          1 MOL1         0.0993
      12    H8      20.548060   20.720925   22.917380 H          1 MOL1         0.0993
      13    C4      21.232288   19.238093   21.476520 C.3        1 MOL1        -0.1338
      14    H9      22.121555   19.834611   21.229724 H          1 MOL1         0.0993
      15    H10     21.568844   18.192169   21.472372 H          1 MOL1         0.0993
      16    C5      20.175829   19.466019   20.364430 C.3        1 MOL1        -0.1313
      17    H11     20.694904   19.778927   19.447553 H          1 MOL1         0.0993
      18    H12     19.510984   20.298727   20.633120 H          1 MOL1         0.0993
      19    C6      19.348613   18.201293   20.034531 C.3        1 MOL1        -0.2328
      20    H13     19.999294   17.386148   19.692188 H          1 MOL1         0.1004
      21    H14     18.629503   18.411422   19.232261 H          1 MOL1         0.1004
      22    H15     18.783209   17.839480   20.900240 H          1 MOL1         0.1004
      23    C7      19.826476   19.176357   27.306541 C.3        1 MOL1        -0.0781
      24    H16     20.598240   18.877583   28.019446 H          1 MOL1         0.0978
      25    H17     19.674910   20.256777   27.358125 H          1 MOL1         0.0978
      26    H18     18.891923   18.660099   27.536803 H          1 MOL1         0.0978
@<TRIPOS>BOND
    1     1     2    1
    2     1     3    1
    3     1     4    1
    4     4     5    1
    5     4     6    1
    6     4     7    1
    7     7     8    1
    8     7     9    1
    9     7    10    1
   10    10    11    1
   11    10    12    1
   12    10    13    1
   13    13    14    1
   14    13    15    1
   15    13    16    1
   16    16    17    1
   17    16    18    1
   18    16    19    1
   19    19    20    1
   20    19    21    1
   21    19    22    1
   22     1    23    1
   23    23    24    1
   24    23    25    1
   25    23    26    1
@<TRIPOS>SUBSTRUCTURE
       1 MOL1            1 RESIDUE      1      MOL     
@<SCITEGIC>MOL_PROPERTY
VM2 Rank
SciTegic.value.IntegerValue
153

@<SCITEGIC>MOL_PROPERTY
Conf_Id
SciTegic.value.IntegerValue
77

@<SCITEGIC>MOL_PROPERTY
Probability
SciTegic.value.DoubleValue
0.01

@<SCITEGIC>MOL_PROPERTY
Sum Probability
SciTegic.value.DoubleValue
99.82

@<SCITEGIC>MOL_PROPERTY
Delta G
SciTegic.value.DoubleValue
3.885

@<SCITEGIC>MOL_PROPERTY
G
SciTegic.value.DoubleValue
79.351

@<SCITEGIC>MOL_PROPERTY
E
SciTegic.value.DoubleValue
46.772

@<SCITEGIC>MOL_PROPERTY
-TS
SciTegic.value.DoubleValue
32.579

@<SCITEGIC>MOL_PROPERTY
U+W
SciTegic.value.DoubleValue
25.310

@<SCITEGIC>MOL_PROPERTY
U
SciTegic.value.DoubleValue
74.594

@<SCITEGIC>MOL_PROPERTY
W
SciTegic.value.DoubleValue
-49.283

@<SCITEGIC>MOL_PROPERTY
W(PB)
SciTegic.value.DoubleValue
-51.537

@<SCITEGIC>MOL_PROPERTY
W(SA)
SciTegic.value.DoubleValue
2.253

@<SCITEGIC>MOL_PROPERTY
Valence
SciTegic.value.DoubleValue
4.886

@<SCITEGIC>MOL_PROPERTY
Coulomb
SciTegic.value.DoubleValue
69.332

@<SCITEGIC>MOL_PROPERTY
VdW
SciTegic.value.DoubleValue
0.376

@<SCITEGIC>MOL_PROPERTY
VdW6
SciTegic.value.DoubleValue
-7.329

@<SCITEGIC>MOL_PROPERTY
VdW12
SciTegic.value.DoubleValue
7.706

@<SCITEGIC>MOL_PROPERTY
Bond
SciTegic.value.DoubleValue
0.232

@<SCITEGIC>MOL_PROPERTY
Angle
SciTegic.value.DoubleValue
1.250

@<SCITEGIC>MOL_PROPERTY
Pdih
SciTegic.value.DoubleValue
3.404

@<SCITEGIC>MOL_PROPERTY
Idih
SciTegic.value.DoubleValue
0.000

@<SCITEGIC>MOL_PROPERTY
Tether
SciTegic.value.DoubleValue
0.000

@<TRIPOS>MOLECULE
guest-s12_vm2.mol2 : vm2 ligand conformer 154
          26          25           1
SMALL
USER_CHARGES
 
@<TRIPOS>ATOM
       1    N1      19.346659   18.857228   25.448691 N.4        1 MOL1        -0.4857
       2    H1      19.211755   17.855080   25.654429 H          1 MOL1         0.3650
       3    H2      18.771393   19.047171   24.615748 H          1 MOL1         0.3650
       4    C1      20.807893   19.134920   25.150933 C.3        1 MOL1         0.0209
       5    H3      21.370034   18.866209   26.048911 H          1 MOL1         0.0967
       6    H4      20.930224   20.207744   24.982353 H          1 MOL1         0.0967
       7    C2      21.373015   18.348402   23.949404 C.3        1 MOL1        -0.1378
       8    H5      22.459644   18.266575   24.085025 H          1 MOL1         0.0993
       9    H6      20.990709   17.319048   23.959368 H          1 MOL1         0.0993
      10    C3      21.115629   19.007111   22.569612 C.3        1 MOL1        -0.1338
      11    H7      21.644894   18.413211   21.813765 H          1 MOL1         0.0993
      12    H8      21.574638   20.005237   22.551023 H          1 MOL1         0.0993
      13    C4      19.619334   19.121815   22.182926 C.3        1 MOL1        -0.1338
      14    H9      19.132682   18.140763   22.272140 H          1 MOL1         0.0993
      15    H10     19.114595   19.794759   22.886854 H          1 MOL1         0.0993
      16    C5      19.392455   19.681541   20.757254 C.3        1 MOL1        -0.1313
      17    H11     19.893089   20.654533   20.654605 H          1 MOL1         0.0993
      18    H12     18.318764   19.873909   20.622589 H          1 MOL1         0.0993
      19    C6      19.867114   18.729285   19.635568 C.3        1 MOL1        -0.2328
      20    H13     19.589941   19.128304   18.651244 H          1 MOL1         0.1004
      21    H14     19.405877   17.738334   19.736833 H          1 MOL1         0.1004
      22    H15     20.956676   18.604138   19.643413 H          1 MOL1         0.1004
      23    C7      18.885901   19.709698   26.622612 C.3        1 MOL1        -0.0781
      24    H16     19.488258   19.466832   27.500741 H          1 MOL1         0.0978
      25    H17     19.008682   20.765201   26.370090 H          1 MOL1         0.0978
      26    H18     17.833830   19.499147   26.827372 H          1 MOL1         0.0978
@<TRIPOS>BOND
    1     1     2    1
    2     1     3    1
    3     1     4    1
    4     4     5    1
    5     4     6    1
    6     4     7    1
    7     7     8    1
    8     7     9    1
    9     7    10    1
   10    10    11    1
   11    10    12    1
   12    10    13    1
   13    13    14    1
   14    13    15    1
   15    13    16    1
   16    16    17    1
   17    16    18    1
   18    16    19    1
   19    19    20    1
   20    19    21    1
   21    19    22    1
   22     1    23    1
   23    23    24    1
   24    23    25    1
   25    23    26    1
@<TRIPOS>SUBSTRUCTURE
       1 MOL1            1 RESIDUE      1      MOL     
@<SCITEGIC>MOL_PROPERTY
VM2 Rank
SciTegic.value.IntegerValue
154

@<SCITEGIC>MOL_PROPERTY
Conf_Id
SciTegic.value.IntegerValue
1568

@<SCITEGIC>MOL_PROPERTY
Probability
SciTegic.value.DoubleValue
0.01

@<SCITEGIC>MOL_PROPERTY
Sum Probability
SciTegic.value.DoubleValue
99.83

@<SCITEGIC>MOL_PROPERTY
Delta G
SciTegic.value.DoubleValue
3.891

@<SCITEGIC>MOL_PROPERTY
G
SciTegic.value.DoubleValue
79.356

@<SCITEGIC>MOL_PROPERTY
E
SciTegic.value.DoubleValue
46.981

@<SCITEGIC>MOL_PROPERTY
-TS
SciTegic.value.DoubleValue
32.375

@<SCITEGIC>MOL_PROPERTY
U+W
SciTegic.value.DoubleValue
25.520

@<SCITEGIC>MOL_PROPERTY
U
SciTegic.value.DoubleValue
74.712

@<SCITEGIC>MOL_PROPERTY
W
SciTegic.value.DoubleValue
-49.192

@<SCITEGIC>MOL_PROPERTY
W(PB)
SciTegic.value.DoubleValue
-51.483

@<SCITEGIC>MOL_PROPERTY
W(SA)
SciTegic.value.DoubleValue
2.291

@<SCITEGIC>MOL_PROPERTY
Valence
SciTegic.value.DoubleValue
4.001

@<SCITEGIC>MOL_PROPERTY
Coulomb
SciTegic.value.DoubleValue
70.535

@<SCITEGIC>MOL_PROPERTY
VdW
SciTegic.value.DoubleValue
0.175

@<SCITEGIC>MOL_PROPERTY
VdW6
SciTegic.value.DoubleValue
-7.476

@<SCITEGIC>MOL_PROPERTY
VdW12
SciTegic.value.DoubleValue
7.651

@<SCITEGIC>MOL_PROPERTY
Bond
SciTegic.value.DoubleValue
0.220

@<SCITEGIC>MOL_PROPERTY
Angle
SciTegic.value.DoubleValue
1.251

@<SCITEGIC>MOL_PROPERTY
Pdih
SciTegic.value.DoubleValue
2.530

@<SCITEGIC>MOL_PROPERTY
Idih
SciTegic.value.DoubleValue
0.000

@<SCITEGIC>MOL_PROPERTY
Tether
SciTegic.value.DoubleValue
0.000

@<TRIPOS>MOLECULE
guest-s12_vm2.mol2 : vm2 ligand conformer 155
          26          25           1
SMALL
USER_CHARGES
 
@<TRIPOS>ATOM
       1    N1      19.787894   18.430315   25.890401 N.4        1 MOL1        -0.4857
       2    H1      20.656264   18.064277   26.310802 H          1 MOL1         0.3650
       3    H2      19.273908   17.600742   25.555320 H          1 MOL1         0.3650
       4    C1      20.115253   19.347338   24.729167 C.3        1 MOL1         0.0209
       5    H3      20.666784   20.204201   25.124122 H          1 MOL1         0.0967
       6    H4      19.171089   19.707203   24.314236 H          1 MOL1         0.0967
       7    C2      20.944955   18.660901   23.626706 C.3        1 MOL1        -0.1378
       8    H5      21.869474   18.269951   24.071878 H          1 MOL1         0.0993
       9    H6      20.396070   17.793993   23.242897 H          1 MOL1         0.0993
      10    C3      21.319639   19.626676   22.473656 C.3        1 MOL1        -0.1338
      11    H7      22.045756   19.142422   21.806317 H          1 MOL1         0.0993
      12    H8      21.847212   20.486841   22.908932 H          1 MOL1         0.0993
      13    C4      20.116633   20.151506   21.642468 C.3        1 MOL1        -0.1338
      14    H9      19.218346   20.243973   22.266083 H          1 MOL1         0.0993
      15    H10     20.351650   21.173858   21.315336 H          1 MOL1         0.0993
      16    C5      19.792945   19.323438   20.372528 C.3        1 MOL1        -0.1313
      17    H11     20.661640   19.324227   19.699362 H          1 MOL1         0.0993
      18    H12     18.984951   19.828899   19.825239 H          1 MOL1         0.0993
      19    C6      19.362847   17.867005   20.652938 C.3        1 MOL1        -0.2328
      20    H13     19.008001   17.388204   19.731139 H          1 MOL1         0.1004
      21    H14     18.547485   17.827932   21.386780 H          1 MOL1         0.1004
      22    H15     20.202172   17.269033   21.028088 H          1 MOL1         0.1004
      23    C7      18.967835   19.182822   26.929135 C.3        1 MOL1        -0.0781
      24    H16     18.039931   19.531465   26.470455 H          1 MOL1         0.0978
      25    H17     18.739127   18.511491   27.759885 H          1 MOL1         0.0978
      26    H18     19.544572   20.036188   27.292583 H          1 MOL1         0.0978
@<TRIPOS>BOND
    1     1     2    1
    2     1     3    1
    3     1     4    1
    4     4     5    1
    5     4     6    1
    6     4     7    1
    7     7     8    1
    8     7     9    1
    9     7    10    1
   10    10    11    1
   11    10    12    1
   12    10    13    1
   13    13    14    1
   14    13    15    1
   15    13    16    1
   16    16    17    1
   17    16    18    1
   18    16    19    1
   19    19    20    1
   20    19    21    1
   21    19    22    1
   22     1    23    1
   23    23    24    1
   24    23    25    1
   25    23    26    1
@<TRIPOS>SUBSTRUCTURE
       1 MOL1            1 RESIDUE      1      MOL     
@<SCITEGIC>MOL_PROPERTY
VM2 Rank
SciTegic.value.IntegerValue
155

@<SCITEGIC>MOL_PROPERTY
Conf_Id
SciTegic.value.IntegerValue
802

@<SCITEGIC>MOL_PROPERTY
Probability
SciTegic.value.DoubleValue
0.01

@<SCITEGIC>MOL_PROPERTY
Sum Probability
SciTegic.value.DoubleValue
99.84

@<SCITEGIC>MOL_PROPERTY
Delta G
SciTegic.value.DoubleValue
3.906

@<SCITEGIC>MOL_PROPERTY
G
SciTegic.value.DoubleValue
79.372

@<SCITEGIC>MOL_PROPERTY
E
SciTegic.value.DoubleValue
46.848

@<SCITEGIC>MOL_PROPERTY
-TS
SciTegic.value.DoubleValue
32.524

@<SCITEGIC>MOL_PROPERTY
U+W
SciTegic.value.DoubleValue
25.386

@<SCITEGIC>MOL_PROPERTY
U
SciTegic.value.DoubleValue
74.853

@<SCITEGIC>MOL_PROPERTY
W
SciTegic.value.DoubleValue
-49.467

@<SCITEGIC>MOL_PROPERTY
W(PB)
SciTegic.value.DoubleValue
-51.721

@<SCITEGIC>MOL_PROPERTY
W(SA)
SciTegic.value.DoubleValue
2.254

@<SCITEGIC>MOL_PROPERTY
Valence
SciTegic.value.DoubleValue
5.100

@<SCITEGIC>MOL_PROPERTY
Coulomb
SciTegic.value.DoubleValue
69.478

@<SCITEGIC>MOL_PROPERTY
VdW
SciTegic.value.DoubleValue
0.275

@<SCITEGIC>MOL_PROPERTY
VdW6
SciTegic.value.DoubleValue
-7.403

@<SCITEGIC>MOL_PROPERTY
VdW12
SciTegic.value.DoubleValue
7.678

@<SCITEGIC>MOL_PROPERTY
Bond
SciTegic.value.DoubleValue
0.247

@<SCITEGIC>MOL_PROPERTY
Angle
SciTegic.value.DoubleValue
1.393

@<SCITEGIC>MOL_PROPERTY
Pdih
SciTegic.value.DoubleValue
3.459

@<SCITEGIC>MOL_PROPERTY
Idih
SciTegic.value.DoubleValue
0.000

@<SCITEGIC>MOL_PROPERTY
Tether
SciTegic.value.DoubleValue
0.000

@<TRIPOS>MOLECULE
guest-s12_vm2.mol2 : vm2 ligand conformer 156
          26          25           1
SMALL
USER_CHARGES
 
@<TRIPOS>ATOM
       1    N1      20.256128   18.478246   25.906942 N.4        1 MOL1        -0.4857
       2    H1      20.949483   17.772218   25.614646 H          1 MOL1         0.3650
       3    H2      19.452498   17.941116   26.268132 H          1 MOL1         0.3650
       4    C1      19.832160   19.318351   24.719073 C.3        1 MOL1         0.0209
       5    H3      20.710703   19.864686   24.368651 H          1 MOL1         0.0967
       6    H4      19.092461   20.043119   25.068281 H          1 MOL1         0.0967
       7    C2      19.237676   18.486148   23.566232 C.3        1 MOL1        -0.1378
       8    H5      19.976056   17.750960   23.227998 H          1 MOL1         0.0993
       9    H6      18.382534   17.913086   23.948446 H          1 MOL1         0.0993
      10    C3      18.756944   19.364357   22.382896 C.3        1 MOL1        -0.1338
      11    H7      18.037096   20.096833   22.774026 H          1 MOL1         0.0993
      12    H8      18.192347   18.747983   21.669873 H          1 MOL1         0.0993
      13    C4      19.883995   20.127719   21.634174 C.3        1 MOL1        -0.1338
      14    H9      19.470358   21.083591   21.283937 H          1 MOL1         0.0993
      15    H10     20.699017   20.395756   22.318470 H          1 MOL1         0.0993
      16    C5      20.456778   19.391331   20.396080 C.3        1 MOL1        -0.1313
      17    H11     21.182020   20.053773   19.903062 H          1 MOL1         0.0993
      18    H12     19.655253   19.220990   19.663737 H          1 MOL1         0.0993
      19    C6      21.152113   18.050193   20.716495 C.3        1 MOL1        -0.2328
      20    H13     21.904996   18.171796   21.505955 H          1 MOL1         0.1004
      21    H14     21.660295   17.659733   19.825331 H          1 MOL1         0.1004
      22    H15     20.427049   17.292005   21.036197 H          1 MOL1         0.1004
      23    C7      20.832207   19.373656   26.995108 C.3        1 MOL1        -0.0781
      24    H16     20.070765   20.090106   27.311113 H          1 MOL1         0.0978
      25    H17     21.133218   18.756562   27.844651 H          1 MOL1         0.0978
      26    H18     21.700207   19.906049   26.600041 H          1 MOL1         0.0978
@<TRIPOS>BOND
    1     1     2    1
    2     1     3    1
    3     1     4    1
    4     4     5    1
    5     4     6    1
    6     4     7    1
    7     7     8    1
    8     7     9    1
    9     7    10    1
   10    10    11    1
   11    10    12    1
   12    10    13    1
   13    13    14    1
   14    13    15    1
   15    13    16    1
   16    16    17    1
   17    16    18    1
   18    16    19    1
   19    19    20    1
   20    19    21    1
   21    19    22    1
   22     1    23    1
   23    23    24    1
   24    23    25    1
   25    23    26    1
@<TRIPOS>SUBSTRUCTURE
       1 MOL1            1 RESIDUE      1      MOL     
@<SCITEGIC>MOL_PROPERTY
VM2 Rank
SciTegic.value.IntegerValue
156

@<SCITEGIC>MOL_PROPERTY
Conf_Id
SciTegic.value.IntegerValue
1242

@<SCITEGIC>MOL_PROPERTY
Probability
SciTegic.value.DoubleValue
0.01

@<SCITEGIC>MOL_PROPERTY
Sum Probability
SciTegic.value.DoubleValue
99.85

@<SCITEGIC>MOL_PROPERTY
Delta G
SciTegic.value.DoubleValue
3.917

@<SCITEGIC>MOL_PROPERTY
G
SciTegic.value.DoubleValue
79.383

@<SCITEGIC>MOL_PROPERTY
E
SciTegic.value.DoubleValue
46.859

@<SCITEGIC>MOL_PROPERTY
-TS
SciTegic.value.DoubleValue
32.524

@<SCITEGIC>MOL_PROPERTY
U+W
SciTegic.value.DoubleValue
25.397

@<SCITEGIC>MOL_PROPERTY
U
SciTegic.value.DoubleValue
74.853

@<SCITEGIC>MOL_PROPERTY
W
SciTegic.value.DoubleValue
-49.456

@<SCITEGIC>MOL_PROPERTY
W(PB)
SciTegic.value.DoubleValue
-51.723

@<SCITEGIC>MOL_PROPERTY
W(SA)
SciTegic.value.DoubleValue
2.268

@<SCITEGIC>MOL_PROPERTY
Valence
SciTegic.value.DoubleValue
5.100

@<SCITEGIC>MOL_PROPERTY
Coulomb
SciTegic.value.DoubleValue
69.478

@<SCITEGIC>MOL_PROPERTY
VdW
SciTegic.value.DoubleValue
0.275

@<SCITEGIC>MOL_PROPERTY
VdW6
SciTegic.value.DoubleValue
-7.403

@<SCITEGIC>MOL_PROPERTY
VdW12
SciTegic.value.DoubleValue
7.678

@<SCITEGIC>MOL_PROPERTY
Bond
SciTegic.value.DoubleValue
0.247

@<SCITEGIC>MOL_PROPERTY
Angle
SciTegic.value.DoubleValue
1.394

@<SCITEGIC>MOL_PROPERTY
Pdih
SciTegic.value.DoubleValue
3.459

@<SCITEGIC>MOL_PROPERTY
Idih
SciTegic.value.DoubleValue
0.000

@<SCITEGIC>MOL_PROPERTY
Tether
SciTegic.value.DoubleValue
0.000

@<TRIPOS>MOLECULE
guest-s12_vm2.mol2 : vm2 ligand conformer 157
          26          25           1
SMALL
USER_CHARGES
 
@<TRIPOS>ATOM
       1    N1      19.229760   19.071783   25.459340 N.4        1 MOL1        -0.4857
       2    H1      18.597007   18.335627   25.109905 H          1 MOL1         0.3650
       3    H2      18.940160   19.936929   24.979030 H          1 MOL1         0.3650
       4    C1      20.666011   18.736117   25.106654 C.3        1 MOL1         0.0209
       5    H3      20.927915   17.815096   25.633658 H          1 MOL1         0.0967
       6    H4      21.303358   19.539066   25.485453 H          1 MOL1         0.0967
       7    C2      20.910581   18.547987   23.596634 C.3        1 MOL1        -0.1378
       8    H5      21.943727   18.203874   23.455631 H          1 MOL1         0.0993
       9    H6      20.265533   17.744503   23.223953 H          1 MOL1         0.0993
      10    C3      20.695545   19.854912   22.790950 C.3        1 MOL1        -0.1338
      11    H7      21.366181   20.622122   23.202510 H          1 MOL1         0.0993
      12    H8      19.675731   20.237421   22.929218 H          1 MOL1         0.0993
      13    C4      20.996964   19.703057   21.276876 C.3        1 MOL1        -0.1338
      14    H9      21.429327   20.647442   20.918109 H          1 MOL1         0.0993
      15    H10     21.774022   18.943176   21.116059 H          1 MOL1         0.0993
      16    C5      19.759335   19.393948   20.395805 C.3        1 MOL1        -0.1313
      17    H11     20.076968   19.376530   19.343826 H          1 MOL1         0.0993
      18    H12     19.032852   20.214302   20.479594 H          1 MOL1         0.0993
      19    C6      19.060850   18.056081   20.723510 C.3        1 MOL1        -0.2328
      20    H13     18.572298   18.091181   21.704749 H          1 MOL1         0.1004
      21    H14     19.775697   17.223145   20.716644 H          1 MOL1         0.1004
      22    H15     18.283849   17.837327   19.979667 H          1 MOL1         0.1004
      23    C7      19.088955   19.226114   26.967230 C.3        1 MOL1        -0.0781
      24    H16     19.743776   20.030883   27.308538 H          1 MOL1         0.0978
      25    H17     18.051177   19.467920   27.207352 H          1 MOL1         0.0978
      26    H18     19.370929   18.288840   27.451932 H          1 MOL1         0.0978
@<TRIPOS>BOND
    1     1     2    1
    2     1     3    1
    3     1     4    1
    4     4     5    1
    5     4     6    1
    6     4     7    1
    7     7     8    1
    8     7     9    1
    9     7    10    1
   10    10    11    1
   11    10    12    1
   12    10    13    1
   13    13    14    1
   14    13    15    1
   15    13    16    1
   16    16    17    1
   17    16    18    1
   18    16    19    1
   19    19    20    1
   20    19    21    1
   21    19    22    1
   22     1    23    1
   23    23    24    1
   24    23    25    1
   25    23    26    1
@<TRIPOS>SUBSTRUCTURE
       1 MOL1            1 RESIDUE      1      MOL     
@<SCITEGIC>MOL_PROPERTY
VM2 Rank
SciTegic.value.IntegerValue
157

@<SCITEGIC>MOL_PROPERTY
Conf_Id
SciTegic.value.IntegerValue
986

@<SCITEGIC>MOL_PROPERTY
Probability
SciTegic.value.DoubleValue
0.01

@<SCITEGIC>MOL_PROPERTY
Sum Probability
SciTegic.value.DoubleValue
99.86

@<SCITEGIC>MOL_PROPERTY
Delta G
SciTegic.value.DoubleValue
3.952

@<SCITEGIC>MOL_PROPERTY
G
SciTegic.value.DoubleValue
79.418

@<SCITEGIC>MOL_PROPERTY
E
SciTegic.value.DoubleValue
46.834

@<SCITEGIC>MOL_PROPERTY
-TS
SciTegic.value.DoubleValue
32.584

@<SCITEGIC>MOL_PROPERTY
U+W
SciTegic.value.DoubleValue
25.372

@<SCITEGIC>MOL_PROPERTY
U
SciTegic.value.DoubleValue
74.907

@<SCITEGIC>MOL_PROPERTY
W
SciTegic.value.DoubleValue
-49.535

@<SCITEGIC>MOL_PROPERTY
W(PB)
SciTegic.value.DoubleValue
-51.746

@<SCITEGIC>MOL_PROPERTY
W(SA)
SciTegic.value.DoubleValue
2.211

@<SCITEGIC>MOL_PROPERTY
Valence
SciTegic.value.DoubleValue
4.797

@<SCITEGIC>MOL_PROPERTY
Coulomb
SciTegic.value.DoubleValue
69.863

@<SCITEGIC>MOL_PROPERTY
VdW
SciTegic.value.DoubleValue
0.247

@<SCITEGIC>MOL_PROPERTY
VdW6
SciTegic.value.DoubleValue
-7.455

@<SCITEGIC>MOL_PROPERTY
VdW12
SciTegic.value.DoubleValue
7.702

@<SCITEGIC>MOL_PROPERTY
Bond
SciTegic.value.DoubleValue
0.232

@<SCITEGIC>MOL_PROPERTY
Angle
SciTegic.value.DoubleValue
1.219

@<SCITEGIC>MOL_PROPERTY
Pdih
SciTegic.value.DoubleValue
3.346

@<SCITEGIC>MOL_PROPERTY
Idih
SciTegic.value.DoubleValue
0.000

@<SCITEGIC>MOL_PROPERTY
Tether
SciTegic.value.DoubleValue
0.000

@<TRIPOS>MOLECULE
guest-s12_vm2.mol2 : vm2 ligand conformer 158
          26          25           1
SMALL
USER_CHARGES
 
@<TRIPOS>ATOM
       1    N1      19.752316   19.632752   25.733392 N.4        1 MOL1        -0.4857
       2    H1      19.398218   19.693145   26.701252 H          1 MOL1         0.3650
       3    H2      19.143354   20.258889   25.186007 H          1 MOL1         0.3650
       4    C1      19.618816   18.203395   25.231359 C.3        1 MOL1         0.0209
       5    H3      18.593232   17.881867   25.429834 H          1 MOL1         0.0967
       6    H4      20.288058   17.579554   25.829202 H          1 MOL1         0.0967
       7    C2      19.926925   18.001120   23.731774 C.3        1 MOL1        -0.1378
       8    H5      20.971100   18.265237   23.533292 H          1 MOL1         0.0993
       9    H6      19.836328   16.930686   23.505034 H          1 MOL1         0.0993
      10    C3      18.967254   18.798470   22.811866 C.3        1 MOL1        -0.1338
      11    H7      19.018080   19.872821   23.032578 H          1 MOL1         0.0993
      12    H8      17.938483   18.488215   23.042005 H          1 MOL1         0.0993
      13    C4      19.224508   18.562536   21.300468 C.3        1 MOL1        -0.1338
      14    H9      19.622717   17.552255   21.133613 H          1 MOL1         0.0993
      15    H10     18.256696   18.587742   20.780674 H          1 MOL1         0.0993
      16    C5      20.142331   19.614726   20.626582 C.3        1 MOL1        -0.1313
      17    H11     19.679765   20.608837   20.701101 H          1 MOL1         0.0993
      18    H12     20.202161   19.387746   19.552926 H          1 MOL1         0.0993
      19    C6      21.574890   19.672833   21.200700 C.3        1 MOL1        -0.2328
      20    H13     21.578023   20.065177   22.224731 H          1 MOL1         0.1004
      21    H14     22.203990   20.337330   20.594444 H          1 MOL1         0.1004
      22    H15     22.041749   18.679434   21.203698 H          1 MOL1         0.1004
      23    C7      21.200959   20.104168   25.680857 C.3        1 MOL1        -0.0781
      24    H16     21.261047   21.119245   26.079684 H          1 MOL1         0.0978
      25    H17     21.818088   19.434142   26.283362 H          1 MOL1         0.0978
      26    H18     21.546164   20.095552   24.645235 H          1 MOL1         0.0978
@<TRIPOS>BOND
    1     1     2    1
    2     1     3    1
    3     1     4    1
    4     4     5    1
    5     4     6    1
    6     4     7    1
    7     7     8    1
    8     7     9    1
    9     7    10    1
   10    10    11    1
   11    10    12    1
   12    10    13    1
   13    13    14    1
   14    13    15    1
   15    13    16    1
   16    16    17    1
   17    16    18    1
   18    16    19    1
   19    19    20    1
   20    19    21    1
   21    19    22    1
   22     1    23    1
   23    23    24    1
   24    23    25    1
   25    23    26    1
@<TRIPOS>SUBSTRUCTURE
       1 MOL1            1 RESIDUE      1      MOL     
@<SCITEGIC>MOL_PROPERTY
VM2 Rank
SciTegic.value.IntegerValue
158

@<SCITEGIC>MOL_PROPERTY
Conf_Id
SciTegic.value.IntegerValue
1558

@<SCITEGIC>MOL_PROPERTY
Probability
SciTegic.value.DoubleValue
0.01

@<SCITEGIC>MOL_PROPERTY
Sum Probability
SciTegic.value.DoubleValue
99.87

@<SCITEGIC>MOL_PROPERTY
Delta G
SciTegic.value.DoubleValue
3.960

@<SCITEGIC>MOL_PROPERTY
G
SciTegic.value.DoubleValue
79.426

@<SCITEGIC>MOL_PROPERTY
E
SciTegic.value.DoubleValue
46.534

@<SCITEGIC>MOL_PROPERTY
-TS
SciTegic.value.DoubleValue
32.893

@<SCITEGIC>MOL_PROPERTY
U+W
SciTegic.value.DoubleValue
25.072

@<SCITEGIC>MOL_PROPERTY
U
SciTegic.value.DoubleValue
75.103

@<SCITEGIC>MOL_PROPERTY
W
SciTegic.value.DoubleValue
-50.032

@<SCITEGIC>MOL_PROPERTY
W(PB)
SciTegic.value.DoubleValue
-52.209

@<SCITEGIC>MOL_PROPERTY
W(SA)
SciTegic.value.DoubleValue
2.177

@<SCITEGIC>MOL_PROPERTY
Valence
SciTegic.value.DoubleValue
5.036

@<SCITEGIC>MOL_PROPERTY
Coulomb
SciTegic.value.DoubleValue
69.777

@<SCITEGIC>MOL_PROPERTY
VdW
SciTegic.value.DoubleValue
0.290

@<SCITEGIC>MOL_PROPERTY
VdW6
SciTegic.value.DoubleValue
-8.613

@<SCITEGIC>MOL_PROPERTY
VdW12
SciTegic.value.DoubleValue
8.903

@<SCITEGIC>MOL_PROPERTY
Bond
SciTegic.value.DoubleValue
0.274

@<SCITEGIC>MOL_PROPERTY
Angle
SciTegic.value.DoubleValue
1.357

@<SCITEGIC>MOL_PROPERTY
Pdih
SciTegic.value.DoubleValue
3.406

@<SCITEGIC>MOL_PROPERTY
Idih
SciTegic.value.DoubleValue
0.000

@<SCITEGIC>MOL_PROPERTY
Tether
SciTegic.value.DoubleValue
0.000

@<TRIPOS>MOLECULE
guest-s12_vm2.mol2 : vm2 ligand conformer 159
          26          25           1
SMALL
USER_CHARGES
 
@<TRIPOS>ATOM
       1    N1      20.701607   19.222473   25.511597 N.4        1 MOL1        -0.4857
       2    H1      20.842946   20.131793   25.046618 H          1 MOL1         0.3650
       3    H2      21.493224   18.632247   25.212626 H          1 MOL1         0.3650
       4    C1      19.391405   18.605496   25.061498 C.3        1 MOL1         0.0209
       5    H3      18.579724   19.259980   25.388993 H          1 MOL1         0.0967
       6    H4      19.285156   17.646709   25.575353 H          1 MOL1         0.0967
       7    C2      19.296427   18.382752   23.539416 C.3        1 MOL1        -0.1378
       8    H5      20.115220   17.729142   23.218582 H          1 MOL1         0.0993
       9    H6      18.366765   17.837744   23.328756 H          1 MOL1         0.0993
      10    C3      19.298508   19.711988   22.741580 C.3        1 MOL1        -0.1338
      11    H7      20.207667   20.291816   22.948167 H          1 MOL1         0.0993
      12    H8      18.459462   20.324702   23.099811 H          1 MOL1         0.0993
      13    C4      19.140670   19.513380   21.211232 C.3        1 MOL1        -0.1338
      14    H9      18.546374   18.613359   21.001767 H          1 MOL1         0.0993
      15    H10     18.552579   20.353516   20.816475 H          1 MOL1         0.0993
      16    C5      20.473764   19.467164   20.421114 C.3        1 MOL1        -0.1313
      17    H11     21.011896   20.416691   20.549928 H          1 MOL1         0.0993
      18    H12     20.240570   19.393787   19.349624 H          1 MOL1         0.0993
      19    C6      21.403417   18.295531   20.806057 C.3        1 MOL1        -0.2328
      20    H13     20.873787   17.335468   20.754999 H          1 MOL1         0.1004
      21    H14     21.805081   18.421334   21.818767 H          1 MOL1         0.1004
      22    H15     22.258592   18.243684   20.119855 H          1 MOL1         0.1004
      23    C7      20.702202   19.391216   27.024507 C.3        1 MOL1        -0.0781
      24    H16     20.582643   18.412777   27.494923 H          1 MOL1         0.0978
      25    H17     21.650063   19.836453   27.335049 H          1 MOL1         0.0978
      26    H18     19.875680   20.044194   27.313327 H          1 MOL1         0.0978
@<TRIPOS>BOND
    1     1     2    1
    2     1     3    1
    3     1     4    1
    4     4     5    1
    5     4     6    1
    6     4     7    1
    7     7     8    1
    8     7     9    1
    9     7    10    1
   10    10    11    1
   11    10    12    1
   12    10    13    1
   13    13    14    1
   14    13    15    1
   15    13    16    1
   16    16    17    1
   17    16    18    1
   18    16    19    1
   19    19    20    1
   20    19    21    1
   21    19    22    1
   22     1    23    1
   23    23    24    1
   24    23    25    1
   25    23    26    1
@<TRIPOS>SUBSTRUCTURE
       1 MOL1            1 RESIDUE      1      MOL     
@<SCITEGIC>MOL_PROPERTY
VM2 Rank
SciTegic.value.IntegerValue
159

@<SCITEGIC>MOL_PROPERTY
Conf_Id
SciTegic.value.IntegerValue
1499

@<SCITEGIC>MOL_PROPERTY
Probability
SciTegic.value.DoubleValue
0.01

@<SCITEGIC>MOL_PROPERTY
Sum Probability
SciTegic.value.DoubleValue
99.88

@<SCITEGIC>MOL_PROPERTY
Delta G
SciTegic.value.DoubleValue
3.962

@<SCITEGIC>MOL_PROPERTY
G
SciTegic.value.DoubleValue
79.428

@<SCITEGIC>MOL_PROPERTY
E
SciTegic.value.DoubleValue
46.845

@<SCITEGIC>MOL_PROPERTY
-TS
SciTegic.value.DoubleValue
32.584

@<SCITEGIC>MOL_PROPERTY
U+W
SciTegic.value.DoubleValue
25.383

@<SCITEGIC>MOL_PROPERTY
U
SciTegic.value.DoubleValue
74.907

@<SCITEGIC>MOL_PROPERTY
W
SciTegic.value.DoubleValue
-49.524

@<SCITEGIC>MOL_PROPERTY
W(PB)
SciTegic.value.DoubleValue
-51.776

@<SCITEGIC>MOL_PROPERTY
W(SA)
SciTegic.value.DoubleValue
2.251

@<SCITEGIC>MOL_PROPERTY
Valence
SciTegic.value.DoubleValue
4.797

@<SCITEGIC>MOL_PROPERTY
Coulomb
SciTegic.value.DoubleValue
69.863

@<SCITEGIC>MOL_PROPERTY
VdW
SciTegic.value.DoubleValue
0.248

@<SCITEGIC>MOL_PROPERTY
VdW6
SciTegic.value.DoubleValue
-7.454

@<SCITEGIC>MOL_PROPERTY
VdW12
SciTegic.value.DoubleValue
7.702

@<SCITEGIC>MOL_PROPERTY
Bond
SciTegic.value.DoubleValue
0.232

@<SCITEGIC>MOL_PROPERTY
Angle
SciTegic.value.DoubleValue
1.219

@<SCITEGIC>MOL_PROPERTY
Pdih
SciTegic.value.DoubleValue
3.345

@<SCITEGIC>MOL_PROPERTY
Idih
SciTegic.value.DoubleValue
0.000

@<SCITEGIC>MOL_PROPERTY
Tether
SciTegic.value.DoubleValue
0.000

@<TRIPOS>MOLECULE
guest-s12_vm2.mol2 : vm2 ligand conformer 160
          26          25           1
SMALL
USER_CHARGES
 
@<TRIPOS>ATOM
       1    N1      19.308469   19.201546   25.945333 N.4        1 MOL1        -0.4857
       2    H1      18.587886   18.916746   26.627590 H          1 MOL1         0.3650
       3    H2      18.951322   20.073455   25.527062 H          1 MOL1         0.3650
       4    C1      19.449776   18.128759   24.876652 C.3        1 MOL1         0.0209
       5    H3      18.446329   17.902166   24.507389 H          1 MOL1         0.0967
       6    H4      19.840308   17.229978   25.360563 H          1 MOL1         0.0967
       7    C2      20.351156   18.503478   23.679846 C.3        1 MOL1        -0.1378
       8    H5      21.376832   18.678126   24.029331 H          1 MOL1         0.0993
       9    H6      20.403583   17.638467   23.009519 H          1 MOL1         0.0993
      10    C3      19.838634   19.748150   22.911284 C.3        1 MOL1        -0.1338
      11    H7      19.878640   20.613754   23.586005 H          1 MOL1         0.0993
      12    H8      18.781761   19.621757   22.638622 H          1 MOL1         0.0993
      13    C4      20.677173   20.080780   21.649384 C.3        1 MOL1        -0.1338
      14    H9      20.721797   21.173903   21.546408 H          1 MOL1         0.0993
      15    H10     21.717480   19.754475   21.785321 H          1 MOL1         0.0993
      16    C5      20.108317   19.511385   20.324349 C.3        1 MOL1        -0.1313
      17    H11     20.735500   19.866631   19.494719 H          1 MOL1         0.0993
      18    H12     19.106060   19.925401   20.145836 H          1 MOL1         0.0993
      19    C6      20.042372   17.969297   20.269570 C.3        1 MOL1        -0.2328
      20    H13     19.749448   17.633593   19.266385 H          1 MOL1         0.1004
      21    H14     19.300237   17.576417   20.975346 H          1 MOL1         0.1004
      22    H15     21.017722   17.522251   20.501197 H          1 MOL1         0.1004
      23    C7      20.632103   19.446606   26.660583 C.3        1 MOL1        -0.0781
      24    H16     20.976676   18.511619   27.107625 H          1 MOL1         0.0978
      25    H17     21.369714   19.807846   25.941139 H          1 MOL1         0.0978
      26    H18     20.483058   20.195798   27.441307 H          1 MOL1         0.0978
@<TRIPOS>BOND
    1     1     2    1
    2     1     3    1
    3     1     4    1
    4     4     5    1
    5     4     6    1
    6     4     7    1
    7     7     8    1
    8     7     9    1
    9     7    10    1
   10    10    11    1
   11    10    12    1
   12    10    13    1
   13    13    14    1
   14    13    15    1
   15    13    16    1
   16    16    17    1
   17    16    18    1
   18    16    19    1
   19    19    20    1
   20    19    21    1
   21    19    22    1
   22     1    23    1
   23    23    24    1
   24    23    25    1
   25    23    26    1
@<TRIPOS>SUBSTRUCTURE
       1 MOL1            1 RESIDUE      1      MOL     
@<SCITEGIC>MOL_PROPERTY
VM2 Rank
SciTegic.value.IntegerValue
160

@<SCITEGIC>MOL_PROPERTY
Conf_Id
SciTegic.value.IntegerValue
749

@<SCITEGIC>MOL_PROPERTY
Probability
SciTegic.value.DoubleValue
0.01

@<SCITEGIC>MOL_PROPERTY
Sum Probability
SciTegic.value.DoubleValue
99.88

@<SCITEGIC>MOL_PROPERTY
Delta G
SciTegic.value.DoubleValue
4.021

@<SCITEGIC>MOL_PROPERTY
G
SciTegic.value.DoubleValue
79.487

@<SCITEGIC>MOL_PROPERTY
E
SciTegic.value.DoubleValue
46.635

@<SCITEGIC>MOL_PROPERTY
-TS
SciTegic.value.DoubleValue
32.852

@<SCITEGIC>MOL_PROPERTY
U+W
SciTegic.value.DoubleValue
25.173

@<SCITEGIC>MOL_PROPERTY
U
SciTegic.value.DoubleValue
74.855

@<SCITEGIC>MOL_PROPERTY
W
SciTegic.value.DoubleValue
-49.682

@<SCITEGIC>MOL_PROPERTY
W(PB)
SciTegic.value.DoubleValue
-51.896

@<SCITEGIC>MOL_PROPERTY
W(SA)
SciTegic.value.DoubleValue
2.214

@<SCITEGIC>MOL_PROPERTY
Valence
SciTegic.value.DoubleValue
5.096

@<SCITEGIC>MOL_PROPERTY
Coulomb
SciTegic.value.DoubleValue
69.227

@<SCITEGIC>MOL_PROPERTY
VdW
SciTegic.value.DoubleValue
0.532

@<SCITEGIC>MOL_PROPERTY
VdW6
SciTegic.value.DoubleValue
-8.269

@<SCITEGIC>MOL_PROPERTY
VdW12
SciTegic.value.DoubleValue
8.801

@<SCITEGIC>MOL_PROPERTY
Bond
SciTegic.value.DoubleValue
0.274

@<SCITEGIC>MOL_PROPERTY
Angle
SciTegic.value.DoubleValue
1.323

@<SCITEGIC>MOL_PROPERTY
Pdih
SciTegic.value.DoubleValue
3.499

@<SCITEGIC>MOL_PROPERTY
Idih
SciTegic.value.DoubleValue
0.000

@<SCITEGIC>MOL_PROPERTY
Tether
SciTegic.value.DoubleValue
0.000

@<TRIPOS>MOLECULE
guest-s12_vm2.mol2 : vm2 ligand conformer 161
          26          25           1
SMALL
USER_CHARGES
 
@<TRIPOS>ATOM
       1    N1      19.288828   18.357659   25.604230 N.4        1 MOL1        -0.4857
       2    H1      19.866367   17.503052   25.623913 H          1 MOL1         0.3650
       3    H2      18.315199   18.023449   25.682710 H          1 MOL1         0.3650
       4    C1      19.471948   19.085510   24.282953 C.3        1 MOL1         0.0209
       5    H3      18.881958   20.004565   24.321583 H          1 MOL1         0.0967
       6    H4      19.048909   18.448041   23.505337 H          1 MOL1         0.0967
       7    C2      20.938390   19.421013   23.934433 C.3        1 MOL1        -0.1378
       8    H5      21.330939   20.099221   24.702923 H          1 MOL1         0.0993
       9    H6      21.555886   18.514275   23.977541 H          1 MOL1         0.0993
      10    C3      21.097566   20.107050   22.553638 C.3        1 MOL1        -0.1338
      11    H7      22.009199   20.719650   22.585842 H          1 MOL1         0.0993
      12    H8      20.276840   20.816719   22.383888 H          1 MOL1         0.0993
      13    C4      21.239645   19.133515   21.351927 C.3        1 MOL1        -0.1338
      14    H9      21.454452   19.723720   20.450374 H          1 MOL1         0.0993
      15    H10     22.124648   18.501743   21.509532 H          1 MOL1         0.0993
      16    C5      20.022826   18.219936   21.062250 C.3        1 MOL1        -0.1313
      17    H11     19.855384   17.531398   21.900078 H          1 MOL1         0.0993
      18    H12     20.266261   17.581430   20.201523 H          1 MOL1         0.0993
      19    C6      18.728415   19.002433   20.742314 C.3        1 MOL1        -0.2328
      20    H13     18.389881   19.597954   21.598434 H          1 MOL1         0.1004
      21    H14     17.917183   18.311995   20.477661 H          1 MOL1         0.1004
      22    H15     18.880050   19.681646   19.893425 H          1 MOL1         0.1004
      23    C7      19.620382   19.262883   26.785256 C.3        1 MOL1        -0.0781
      24    H16     20.669998   19.558526   26.731271 H          1 MOL1         0.0978
      25    H17     18.982901   20.148919   26.748213 H          1 MOL1         0.0978
      26    H18     19.440255   18.717787   27.714498 H          1 MOL1         0.0978
@<TRIPOS>BOND
    1     1     2    1
    2     1     3    1
    3     1     4    1
    4     4     5    1
    5     4     6    1
    6     4     7    1
    7     7     8    1
    8     7     9    1
    9     7    10    1
   10    10    11    1
   11    10    12    1
   12    10    13    1
   13    13    14    1
   14    13    15    1
   15    13    16    1
   16    16    17    1
   17    16    18    1
   18    16    19    1
   19    19    20    1
   20    19    21    1
   21    19    22    1
   22     1    23    1
   23    23    24    1
   24    23    25    1
   25    23    26    1
@<TRIPOS>SUBSTRUCTURE
       1 MOL1            1 RESIDUE      1      MOL     
@<SCITEGIC>MOL_PROPERTY
VM2 Rank
SciTegic.value.IntegerValue
161

@<SCITEGIC>MOL_PROPERTY
Conf_Id
SciTegic.value.IntegerValue
562

@<SCITEGIC>MOL_PROPERTY
Probability
SciTegic.value.DoubleValue
0.01

@<SCITEGIC>MOL_PROPERTY
Sum Probability
SciTegic.value.DoubleValue
99.89

@<SCITEGIC>MOL_PROPERTY
Delta G
SciTegic.value.DoubleValue
4.026

@<SCITEGIC>MOL_PROPERTY
G
SciTegic.value.DoubleValue
79.492

@<SCITEGIC>MOL_PROPERTY
E
SciTegic.value.DoubleValue
46.319

@<SCITEGIC>MOL_PROPERTY
-TS
SciTegic.value.DoubleValue
33.173

@<SCITEGIC>MOL_PROPERTY
U+W
SciTegic.value.DoubleValue
24.858

@<SCITEGIC>MOL_PROPERTY
U
SciTegic.value.DoubleValue
74.834

@<SCITEGIC>MOL_PROPERTY
W
SciTegic.value.DoubleValue
-49.977

@<SCITEGIC>MOL_PROPERTY
W(PB)
SciTegic.value.DoubleValue
-52.173

@<SCITEGIC>MOL_PROPERTY
W(SA)
SciTegic.value.DoubleValue
2.196

@<SCITEGIC>MOL_PROPERTY
Valence
SciTegic.value.DoubleValue
4.933

@<SCITEGIC>MOL_PROPERTY
Coulomb
SciTegic.value.DoubleValue
69.669

@<SCITEGIC>MOL_PROPERTY
VdW
SciTegic.value.DoubleValue
0.232

@<SCITEGIC>MOL_PROPERTY
VdW6
SciTegic.value.DoubleValue
-8.762

@<SCITEGIC>MOL_PROPERTY
VdW12
SciTegic.value.DoubleValue
8.993

@<SCITEGIC>MOL_PROPERTY
Bond
SciTegic.value.DoubleValue
0.278

@<SCITEGIC>MOL_PROPERTY
Angle
SciTegic.value.DoubleValue
1.765

@<SCITEGIC>MOL_PROPERTY
Pdih
SciTegic.value.DoubleValue
2.890

@<SCITEGIC>MOL_PROPERTY
Idih
SciTegic.value.DoubleValue
0.000

@<SCITEGIC>MOL_PROPERTY
Tether
SciTegic.value.DoubleValue
0.000

@<TRIPOS>MOLECULE
guest-s12_vm2.mol2 : vm2 ligand conformer 162
          26          25           1
SMALL
USER_CHARGES
 
@<TRIPOS>ATOM
       1    N1      20.778396   18.510164   25.656962 N.4        1 MOL1        -0.4857
       2    H1      21.791586   18.379409   25.805815 H          1 MOL1         0.3650
       3    H2      20.385877   17.556221   25.642298 H          1 MOL1         0.3650
       4    C1      20.544704   19.195316   24.320913 C.3        1 MOL1         0.0209
       5    H3      21.141351   18.662210   23.579412 H          1 MOL1         0.0967
       6    H4      20.932331   20.214447   24.394130 H          1 MOL1         0.0967
       7    C2      19.068772   19.229609   23.868216 C.3        1 MOL1        -0.1378
       8    H5      18.646072   18.216388   23.874504 H          1 MOL1         0.0993
       9    H6      18.494299   19.808831   24.602464 H          1 MOL1         0.0993
      10    C3      18.871096   19.879111   22.474785 C.3        1 MOL1        -0.1338
      11    H7      19.541022   20.741407   22.357828 H          1 MOL1         0.0993
      12    H8      17.854368   20.294266   22.438701 H          1 MOL1         0.0993
      13    C4      19.013487   18.905619   21.273076 C.3        1 MOL1        -0.1338
      14    H9      18.265829   18.106705   21.372829 H          1 MOL1         0.0993
      15    H10     18.747360   19.446602   20.354492 H          1 MOL1         0.0993
      16    C5      20.407247   18.259296   21.075873 C.3        1 MOL1        -0.1313
      17    H11     20.358961   17.590967   20.204779 H          1 MOL1         0.0993
      18    H12     20.651452   17.612859   21.928258 H          1 MOL1         0.0993
      19    C6      21.535692   19.289830   20.841830 C.3        1 MOL1        -0.2328
      20    H13     22.486363   18.779764   20.639587 H          1 MOL1         0.1004
      21    H14     21.685896   19.935347   21.715294 H          1 MOL1         0.1004
      22    H15     21.309587   19.930411   19.979584 H          1 MOL1         0.1004
      23    C7      20.188607   19.321053   26.805346 C.3        1 MOL1        -0.0781
      24    H16     19.107282   19.398457   26.675897 H          1 MOL1         0.0978
      25    H17     20.409852   18.817078   27.748811 H          1 MOL1         0.0978
      26    H18     20.634508   20.318041   26.806650 H          1 MOL1         0.0978
@<TRIPOS>BOND
    1     1     2    1
    2     1     3    1
    3     1     4    1
    4     4     5    1
    5     4     6    1
    6     4     7    1
    7     7     8    1
    8     7     9    1
    9     7    10    1
   10    10    11    1
   11    10    12    1
   12    10    13    1
   13    13    14    1
   14    13    15    1
   15    13    16    1
   16    16    17    1
   17    16    18    1
   18    16    19    1
   19    19    20    1
   20    19    21    1
   21    19    22    1
   22     1    23    1
   23    23    24    1
   24    23    25    1
   25    23    26    1
@<TRIPOS>SUBSTRUCTURE
       1 MOL1            1 RESIDUE      1      MOL     
@<SCITEGIC>MOL_PROPERTY
VM2 Rank
SciTegic.value.IntegerValue
162

@<SCITEGIC>MOL_PROPERTY
Conf_Id
SciTegic.value.IntegerValue
445

@<SCITEGIC>MOL_PROPERTY
Probability
SciTegic.value.DoubleValue
0.01

@<SCITEGIC>MOL_PROPERTY
Sum Probability
SciTegic.value.DoubleValue
99.90

@<SCITEGIC>MOL_PROPERTY
Delta G
SciTegic.value.DoubleValue
4.041

@<SCITEGIC>MOL_PROPERTY
G
SciTegic.value.DoubleValue
79.507

@<SCITEGIC>MOL_PROPERTY
E
SciTegic.value.DoubleValue
46.334

@<SCITEGIC>MOL_PROPERTY
-TS
SciTegic.value.DoubleValue
33.173

@<SCITEGIC>MOL_PROPERTY
U+W
SciTegic.value.DoubleValue
24.872

@<SCITEGIC>MOL_PROPERTY
U
SciTegic.value.DoubleValue
74.834

@<SCITEGIC>MOL_PROPERTY
W
SciTegic.value.DoubleValue
-49.962

@<SCITEGIC>MOL_PROPERTY
W(PB)
SciTegic.value.DoubleValue
-52.184

@<SCITEGIC>MOL_PROPERTY
W(SA)
SciTegic.value.DoubleValue
2.222

@<SCITEGIC>MOL_PROPERTY
Valence
SciTegic.value.DoubleValue
4.933

@<SCITEGIC>MOL_PROPERTY
Coulomb
SciTegic.value.DoubleValue
69.669

@<SCITEGIC>MOL_PROPERTY
VdW
SciTegic.value.DoubleValue
0.232

@<SCITEGIC>MOL_PROPERTY
VdW6
SciTegic.value.DoubleValue
-8.762

@<SCITEGIC>MOL_PROPERTY
VdW12
SciTegic.value.DoubleValue
8.994

@<SCITEGIC>MOL_PROPERTY
Bond
SciTegic.value.DoubleValue
0.278

@<SCITEGIC>MOL_PROPERTY
Angle
SciTegic.value.DoubleValue
1.765

@<SCITEGIC>MOL_PROPERTY
Pdih
SciTegic.value.DoubleValue
2.890

@<SCITEGIC>MOL_PROPERTY
Idih
SciTegic.value.DoubleValue
0.000

@<SCITEGIC>MOL_PROPERTY
Tether
SciTegic.value.DoubleValue
0.000

@<TRIPOS>MOLECULE
guest-s12_vm2.mol2 : vm2 ligand conformer 163
          26          25           1
SMALL
USER_CHARGES
 
@<TRIPOS>ATOM
       1    N1      20.564262   19.330299   25.989935 N.4        1 MOL1        -0.4857
       2    H1      20.765568   20.259522   25.591499 H          1 MOL1         0.3650
       3    H2      21.278060   19.192594   26.722979 H          1 MOL1         0.3650
       4    C1      20.718593   18.258912   24.921649 C.3        1 MOL1         0.0209
       5    H3      20.485374   17.296152   25.383379 H          1 MOL1         0.0967
       6    H4      21.770508   18.243068   24.625286 H          1 MOL1         0.0967
       7    C2      19.846156   18.451854   23.661937 C.3        1 MOL1        -0.1378
       8    H5      20.017083   17.598939   22.995868 H          1 MOL1         0.0993
       9    H6      18.784443   18.412706   23.937411 H          1 MOL1         0.0993
      10    C3      20.148631   19.779953   22.922182 C.3        1 MOL1        -0.1338
      11    H7      21.225644   19.872043   22.725043 H          1 MOL1         0.0993
      12    H8      19.887141   20.614703   23.586213 H          1 MOL1         0.0993
      13    C4      19.350509   19.944992   21.602352 C.3        1 MOL1        -0.1338
      14    H9      18.390816   19.414021   21.667555 H          1 MOL1         0.0993
      15    H10     19.092983   21.007187   21.488619 H          1 MOL1         0.0993
      16    C5      20.114043   19.511886   20.324476 C.3        1 MOL1        -0.1313
      17    H11     21.021853   20.121289   20.213555 H          1 MOL1         0.0993
      18    H12     19.487592   19.738895   19.450480 H          1 MOL1         0.0993
      19    C6      20.494121   18.015424   20.285465 C.3        1 MOL1        -0.2328
      20    H13     20.918280   17.753079   19.307637 H          1 MOL1         0.1004
      21    H14     19.615562   17.378739   20.451521 H          1 MOL1         0.1004
      22    H15     21.249176   17.775687   21.044185 H          1 MOL1         0.1004
      23    C7      19.171686   19.296681   26.609004 C.3        1 MOL1        -0.0781
      24    H16     18.993471   18.308065   27.037555 H          1 MOL1         0.0978
      25    H17     19.110664   20.054918   27.392833 H          1 MOL1         0.0978
      26    H18     18.428343   19.505963   25.837120 H          1 MOL1         0.0978
@<TRIPOS>BOND
    1     1     2    1
    2     1     3    1
    3     1     4    1
    4     4     5    1
    5     4     6    1
    6     4     7    1
    7     7     8    1
    8     7     9    1
    9     7    10    1
   10    10    11    1
   11    10    12    1
   12    10    13    1
   13    13    14    1
   14    13    15    1
   15    13    16    1
   16    16    17    1
   17    16    18    1
   18    16    19    1
   19    19    20    1
   20    19    21    1
   21    19    22    1
   22     1    23    1
   23    23    24    1
   24    23    25    1
   25    23    26    1
@<TRIPOS>SUBSTRUCTURE
       1 MOL1            1 RESIDUE      1      MOL     
@<SCITEGIC>MOL_PROPERTY
VM2 Rank
SciTegic.value.IntegerValue
163

@<SCITEGIC>MOL_PROPERTY
Conf_Id
SciTegic.value.IntegerValue
1073

@<SCITEGIC>MOL_PROPERTY
Probability
SciTegic.value.DoubleValue
0.01

@<SCITEGIC>MOL_PROPERTY
Sum Probability
SciTegic.value.DoubleValue
99.91

@<SCITEGIC>MOL_PROPERTY
Delta G
SciTegic.value.DoubleValue
4.045

@<SCITEGIC>MOL_PROPERTY
G
SciTegic.value.DoubleValue
79.511

@<SCITEGIC>MOL_PROPERTY
E
SciTegic.value.DoubleValue
46.660

@<SCITEGIC>MOL_PROPERTY
-TS
SciTegic.value.DoubleValue
32.851

@<SCITEGIC>MOL_PROPERTY
U+W
SciTegic.value.DoubleValue
25.198

@<SCITEGIC>MOL_PROPERTY
U
SciTegic.value.DoubleValue
74.854

@<SCITEGIC>MOL_PROPERTY
W
SciTegic.value.DoubleValue
-49.656

@<SCITEGIC>MOL_PROPERTY
W(PB)
SciTegic.value.DoubleValue
-51.862

@<SCITEGIC>MOL_PROPERTY
W(SA)
SciTegic.value.DoubleValue
2.206

@<SCITEGIC>MOL_PROPERTY
Valence
SciTegic.value.DoubleValue
5.096

@<SCITEGIC>MOL_PROPERTY
Coulomb
SciTegic.value.DoubleValue
69.227

@<SCITEGIC>MOL_PROPERTY
VdW
SciTegic.value.DoubleValue
0.531

@<SCITEGIC>MOL_PROPERTY
VdW6
SciTegic.value.DoubleValue
-8.268

@<SCITEGIC>MOL_PROPERTY
VdW12
SciTegic.value.DoubleValue
8.799

@<SCITEGIC>MOL_PROPERTY
Bond
SciTegic.value.DoubleValue
0.274

@<SCITEGIC>MOL_PROPERTY
Angle
SciTegic.value.DoubleValue
1.324

@<SCITEGIC>MOL_PROPERTY
Pdih
SciTegic.value.DoubleValue
3.498

@<SCITEGIC>MOL_PROPERTY
Idih
SciTegic.value.DoubleValue
0.000

@<SCITEGIC>MOL_PROPERTY
Tether
SciTegic.value.DoubleValue
0.000

@<TRIPOS>MOLECULE
guest-s12_vm2.mol2 : vm2 ligand conformer 164
          26          25           1
SMALL
USER_CHARGES
 
@<TRIPOS>ATOM
       1    N1      20.309885   19.645909   25.250067 N.4        1 MOL1        -0.4857
       2    H1      20.918197   20.009074   24.501500 H          1 MOL1         0.3650
       3    H2      20.948284   19.268755   25.967648 H          1 MOL1         0.3650
       4    C1      19.425773   18.540242   24.707096 C.3        1 MOL1         0.0209
       5    H3      18.742458   18.975208   23.975095 H          1 MOL1         0.0967
       6    H4      18.827838   18.158079   25.538350 H          1 MOL1         0.0967
       7    C2      20.207202   17.378064   24.064274 C.3        1 MOL1        -0.1378
       8    H5      20.829514   16.904838   24.835388 H          1 MOL1         0.0993
       9    H6      19.491124   16.610300   23.742578 H          1 MOL1         0.0993
      10    C3      21.107323   17.771724   22.862365 C.3        1 MOL1        -0.1338
      11    H7      21.647658   16.866593   22.551935 H          1 MOL1         0.0993
      12    H8      21.885575   18.480746   23.174422 H          1 MOL1         0.0993
      13    C4      20.345346   18.315138   21.624794 C.3        1 MOL1        -0.1338
      14    H9      20.932432   18.068577   20.729152 H          1 MOL1         0.0993
      15    H10     19.387295   17.789360   21.511338 H          1 MOL1         0.0993
      16    C5      20.118806   19.846761   21.639449 C.3        1 MOL1        -0.1313
      17    H11     21.081616   20.362756   21.759013 H          1 MOL1         0.0993
      18    H12     19.493653   20.141118   22.489756 H          1 MOL1         0.0993
      19    C6      19.443290   20.331825   20.339073 C.3        1 MOL1        -0.2328
      20    H13     19.290916   21.418668   20.363364 H          1 MOL1         0.1004
      21    H14     18.462635   19.857431   20.203160 H          1 MOL1         0.1004
      22    H15     20.060413   20.098428   19.461642 H          1 MOL1         0.1004
      23    C7      19.450374   20.760338   25.829882 C.3        1 MOL1        -0.0781
      24    H16     18.838361   20.356972   26.639603 H          1 MOL1         0.0978
      25    H17     20.099457   21.549362   26.216180 H          1 MOL1         0.0978
      26    H18     18.806688   21.163244   25.044904 H          1 MOL1         0.0978
@<TRIPOS>BOND
    1     1     2    1
    2     1     3    1
    3     1     4    1
    4     4     5    1
    5     4     6    1
    6     4     7    1
    7     7     8    1
    8     7     9    1
    9     7    10    1
   10    10    11    1
   11    10    12    1
   12    10    13    1
   13    13    14    1
   14    13    15    1
   15    13    16    1
   16    16    17    1
   17    16    18    1
   18    16    19    1
   19    19    20    1
   20    19    21    1
   21    19    22    1
   22     1    23    1
   23    23    24    1
   24    23    25    1
   25    23    26    1
@<TRIPOS>SUBSTRUCTURE
       1 MOL1            1 RESIDUE      1      MOL     
@<SCITEGIC>MOL_PROPERTY
VM2 Rank
SciTegic.value.IntegerValue
164

@<SCITEGIC>MOL_PROPERTY
Conf_Id
SciTegic.value.IntegerValue
713

@<SCITEGIC>MOL_PROPERTY
Probability
SciTegic.value.DoubleValue
0.01

@<SCITEGIC>MOL_PROPERTY
Sum Probability
SciTegic.value.DoubleValue
99.92

@<SCITEGIC>MOL_PROPERTY
Delta G
SciTegic.value.DoubleValue
4.053

@<SCITEGIC>MOL_PROPERTY
G
SciTegic.value.DoubleValue
79.519

@<SCITEGIC>MOL_PROPERTY
E
SciTegic.value.DoubleValue
46.795

@<SCITEGIC>MOL_PROPERTY
-TS
SciTegic.value.DoubleValue
32.725

@<SCITEGIC>MOL_PROPERTY
U+W
SciTegic.value.DoubleValue
25.333

@<SCITEGIC>MOL_PROPERTY
U
SciTegic.value.DoubleValue
74.862

@<SCITEGIC>MOL_PROPERTY
W
SciTegic.value.DoubleValue
-49.529

@<SCITEGIC>MOL_PROPERTY
W(PB)
SciTegic.value.DoubleValue
-51.763

@<SCITEGIC>MOL_PROPERTY
W(SA)
SciTegic.value.DoubleValue
2.234

@<SCITEGIC>MOL_PROPERTY
Valence
SciTegic.value.DoubleValue
4.457

@<SCITEGIC>MOL_PROPERTY
Coulomb
SciTegic.value.DoubleValue
70.609

@<SCITEGIC>MOL_PROPERTY
VdW
SciTegic.value.DoubleValue
-0.205

@<SCITEGIC>MOL_PROPERTY
VdW6
SciTegic.value.DoubleValue
-8.103

@<SCITEGIC>MOL_PROPERTY
VdW12
SciTegic.value.DoubleValue
7.899

@<SCITEGIC>MOL_PROPERTY
Bond
SciTegic.value.DoubleValue
0.231

@<SCITEGIC>MOL_PROPERTY
Angle
SciTegic.value.DoubleValue
1.446

@<SCITEGIC>MOL_PROPERTY
Pdih
SciTegic.value.DoubleValue
2.780

@<SCITEGIC>MOL_PROPERTY
Idih
SciTegic.value.DoubleValue
0.000

@<SCITEGIC>MOL_PROPERTY
Tether
SciTegic.value.DoubleValue
0.000

@<TRIPOS>MOLECULE
guest-s12_vm2.mol2 : vm2 ligand conformer 165
          26          25           1
SMALL
USER_CHARGES
 
@<TRIPOS>ATOM
       1    N1      19.546363   19.568848   25.223080 N.4        1 MOL1        -0.4857
       2    H1      18.947474   19.066919   25.896961 H          1 MOL1         0.3650
       3    H2      18.931674   19.808535   24.431251 H          1 MOL1         0.3650
       4    C1      20.669052   18.665618   24.751158 C.3        1 MOL1         0.0209
       5    H3      21.271506   18.404547   25.624914 H          1 MOL1         0.0967
       6    H4      21.301406   19.233295   24.065732 H          1 MOL1         0.0967
       7    C2      20.182096   17.375499   24.063429 C.3        1 MOL1        -0.1378
       8    H5      21.057645   16.768186   23.798285 H          1 MOL1         0.0993
       9    H6      19.614055   16.782317   24.792329 H          1 MOL1         0.0993
      10    C3      19.308221   17.590217   22.798516 C.3        1 MOL1        -0.1338
      11    H7      18.384225   18.127518   23.050124 H          1 MOL1         0.0993
      12    H8      18.982461   16.597720   22.457310 H          1 MOL1         0.0993
      13    C4      20.031496   18.283486   21.613715 C.3        1 MOL1        -0.1338
      14    H9      21.080773   17.960339   21.571663 H          1 MOL1         0.0993
      15    H10     19.569907   17.931009   20.680800 H          1 MOL1         0.0993
      16    C5      19.946152   19.829366   21.633295 C.3        1 MOL1        -0.1313
      17    H11     20.438535   20.236594   22.523356 H          1 MOL1         0.0993
      18    H12     18.893745   20.141933   21.681111 H          1 MOL1         0.0993
      19    C6      20.601064   20.448664   20.380238 C.3        1 MOL1        -0.2328
      20    H13     20.531265   21.543847   20.407372 H          1 MOL1         0.1004
      21    H14     20.106318   20.102913   19.463243 H          1 MOL1         0.1004
      22    H15     21.663780   20.180606   20.317111 H          1 MOL1         0.1004
      23    C7      20.123557   20.828302   25.853569 C.3        1 MOL1        -0.0781
      24    H16     20.727136   21.357021   25.112620 H          1 MOL1         0.0978
      25    H17     19.304711   21.469216   26.187956 H          1 MOL1         0.0978
      26    H18     20.745654   20.549535   26.706912 H          1 MOL1         0.0978
@<TRIPOS>BOND
    1     1     2    1
    2     1     3    1
    3     1     4    1
    4     4     5    1
    5     4     6    1
    6     4     7    1
    7     7     8    1
    8     7     9    1
    9     7    10    1
   10    10    11    1
   11    10    12    1
   12    10    13    1
   13    13    14    1
   14    13    15    1
   15    13    16    1
   16    16    17    1
   17    16    18    1
   18    16    19    1
   19    19    20    1
   20    19    21    1
   21    19    22    1
   22     1    23    1
   23    23    24    1
   24    23    25    1
   25    23    26    1
@<TRIPOS>SUBSTRUCTURE
       1 MOL1            1 RESIDUE      1      MOL     
@<SCITEGIC>MOL_PROPERTY
VM2 Rank
SciTegic.value.IntegerValue
165

@<SCITEGIC>MOL_PROPERTY
Conf_Id
SciTegic.value.IntegerValue
706

@<SCITEGIC>MOL_PROPERTY
Probability
SciTegic.value.DoubleValue
0.01

@<SCITEGIC>MOL_PROPERTY
Sum Probability
SciTegic.value.DoubleValue
99.92

@<SCITEGIC>MOL_PROPERTY
Delta G
SciTegic.value.DoubleValue
4.056

@<SCITEGIC>MOL_PROPERTY
G
SciTegic.value.DoubleValue
79.522

@<SCITEGIC>MOL_PROPERTY
E
SciTegic.value.DoubleValue
46.797

@<SCITEGIC>MOL_PROPERTY
-TS
SciTegic.value.DoubleValue
32.725

@<SCITEGIC>MOL_PROPERTY
U+W
SciTegic.value.DoubleValue
25.335

@<SCITEGIC>MOL_PROPERTY
U
SciTegic.value.DoubleValue
74.861

@<SCITEGIC>MOL_PROPERTY
W
SciTegic.value.DoubleValue
-49.526

@<SCITEGIC>MOL_PROPERTY
W(PB)
SciTegic.value.DoubleValue
-51.752

@<SCITEGIC>MOL_PROPERTY
W(SA)
SciTegic.value.DoubleValue
2.225

@<SCITEGIC>MOL_PROPERTY
Valence
SciTegic.value.DoubleValue
4.458

@<SCITEGIC>MOL_PROPERTY
Coulomb
SciTegic.value.DoubleValue
70.609

@<SCITEGIC>MOL_PROPERTY
VdW
SciTegic.value.DoubleValue
-0.205

@<SCITEGIC>MOL_PROPERTY
VdW6
SciTegic.value.DoubleValue
-8.103

@<SCITEGIC>MOL_PROPERTY
VdW12
SciTegic.value.DoubleValue
7.898

@<SCITEGIC>MOL_PROPERTY
Bond
SciTegic.value.DoubleValue
0.231

@<SCITEGIC>MOL_PROPERTY
Angle
SciTegic.value.DoubleValue
1.446

@<SCITEGIC>MOL_PROPERTY
Pdih
SciTegic.value.DoubleValue
2.781

@<SCITEGIC>MOL_PROPERTY
Idih
SciTegic.value.DoubleValue
0.000

@<SCITEGIC>MOL_PROPERTY
Tether
SciTegic.value.DoubleValue
0.000

@<TRIPOS>MOLECULE
guest-s12_vm2.mol2 : vm2 ligand conformer 166
          26          25           1
SMALL
USER_CHARGES
 
@<TRIPOS>ATOM
       1    N1      19.954563   19.190540   26.122022 N.4        1 MOL1        -0.4857
       2    H1      19.704436   18.273700   26.523504 H          1 MOL1         0.3650
       3    H2      19.569225   19.884447   26.782208 H          1 MOL1         0.3650
       4    C1      19.300594   19.364924   24.761719 C.3        1 MOL1         0.0209
       5    H3      19.626337   20.325731   24.356971 H          1 MOL1         0.0967
       6    H4      18.220775   19.413267   24.923630 H          1 MOL1         0.0967
       7    C2      19.606363   18.234376   23.755881 C.3        1 MOL1        -0.1378
       8    H5      20.684076   18.184252   23.570327 H          1 MOL1         0.0993
       9    H6      19.326019   17.274300   24.208717 H          1 MOL1         0.0993
      10    C3      18.833597   18.398854   22.422343 C.3        1 MOL1        -0.1338
      11    H7      17.761217   18.453743   22.656043 H          1 MOL1         0.0993
      12    H8      18.956115   17.495292   21.809471 H          1 MOL1         0.0993
      13    C4      19.223809   19.650962   21.589469 C.3        1 MOL1        -0.1338
      14    H9      18.326526   19.995677   21.057030 H          1 MOL1         0.0993
      15    H10     19.512590   20.483575   22.243458 H          1 MOL1         0.0993
      16    C5      20.326343   19.409562   20.526664 C.3        1 MOL1        -0.1313
      17    H11     20.458744   20.334816   19.948529 H          1 MOL1         0.0993
      18    H12     19.987896   18.649511   19.808653 H          1 MOL1         0.0993
      19    C6      21.694564   18.992236   21.108601 C.3        1 MOL1        -0.2328
      20    H13     21.657285   17.978775   21.525951 H          1 MOL1         0.1004
      21    H14     22.019853   19.685120   21.895391 H          1 MOL1         0.1004
      22    H15     22.461076   18.992622   20.322897 H          1 MOL1         0.1004
      23    C7      21.468167   19.348547   26.030300 C.3        1 MOL1        -0.0781
      24    H16     21.898207   19.254222   27.029925 H          1 MOL1         0.0978
      25    H17     21.874735   18.570401   25.381309 H          1 MOL1         0.0978
      26    H18     21.701800   20.333363   25.619960 H          1 MOL1         0.0978
@<TRIPOS>BOND
    1     1     2    1
    2     1     3    1
    3     1     4    1
    4     4     5    1
    5     4     6    1
    6     4     7    1
    7     7     8    1
    8     7     9    1
    9     7    10    1
   10    10    11    1
   11    10    12    1
   12    10    13    1
   13    13    14    1
   14    13    15    1
   15    13    16    1
   16    16    17    1
   17    16    18    1
   18    16    19    1
   19    19    20    1
   20    19    21    1
   21    19    22    1
   22     1    23    1
   23    23    24    1
   24    23    25    1
   25    23    26    1
@<TRIPOS>SUBSTRUCTURE
       1 MOL1            1 RESIDUE      1      MOL     
@<SCITEGIC>MOL_PROPERTY
VM2 Rank
SciTegic.value.IntegerValue
166

@<SCITEGIC>MOL_PROPERTY
Conf_Id
SciTegic.value.IntegerValue
270

@<SCITEGIC>MOL_PROPERTY
Probability
SciTegic.value.DoubleValue
0.01

@<SCITEGIC>MOL_PROPERTY
Sum Probability
SciTegic.value.DoubleValue
99.93

@<SCITEGIC>MOL_PROPERTY
Delta G
SciTegic.value.DoubleValue
4.068

@<SCITEGIC>MOL_PROPERTY
G
SciTegic.value.DoubleValue
79.534

@<SCITEGIC>MOL_PROPERTY
E
SciTegic.value.DoubleValue
46.871

@<SCITEGIC>MOL_PROPERTY
-TS
SciTegic.value.DoubleValue
32.663

@<SCITEGIC>MOL_PROPERTY
U+W
SciTegic.value.DoubleValue
25.409

@<SCITEGIC>MOL_PROPERTY
U
SciTegic.value.DoubleValue
75.162

@<SCITEGIC>MOL_PROPERTY
W
SciTegic.value.DoubleValue
-49.753

@<SCITEGIC>MOL_PROPERTY
W(PB)
SciTegic.value.DoubleValue
-51.930

@<SCITEGIC>MOL_PROPERTY
W(SA)
SciTegic.value.DoubleValue
2.177

@<SCITEGIC>MOL_PROPERTY
Valence
SciTegic.value.DoubleValue
5.357

@<SCITEGIC>MOL_PROPERTY
Coulomb
SciTegic.value.DoubleValue
69.345

@<SCITEGIC>MOL_PROPERTY
VdW
SciTegic.value.DoubleValue
0.460

@<SCITEGIC>MOL_PROPERTY
VdW6
SciTegic.value.DoubleValue
-8.235

@<SCITEGIC>MOL_PROPERTY
VdW12
SciTegic.value.DoubleValue
8.696

@<SCITEGIC>MOL_PROPERTY
Bond
SciTegic.value.DoubleValue
0.287

@<SCITEGIC>MOL_PROPERTY
Angle
SciTegic.value.DoubleValue
1.526

@<SCITEGIC>MOL_PROPERTY
Pdih
SciTegic.value.DoubleValue
3.545

@<SCITEGIC>MOL_PROPERTY
Idih
SciTegic.value.DoubleValue
0.000

@<SCITEGIC>MOL_PROPERTY
Tether
SciTegic.value.DoubleValue
0.000

@<TRIPOS>MOLECULE
guest-s12_vm2.mol2 : vm2 ligand conformer 167
          26          25           1
SMALL
USER_CHARGES
 
@<TRIPOS>ATOM
       1    N1      19.974131   19.496455   26.049229 N.4        1 MOL1        -0.4857
       2    H1      19.311942   20.216121   25.723419 H          1 MOL1         0.3650
       3    H2      20.380817   19.880231   26.917076 H          1 MOL1         0.3650
       4    C1      21.074358   19.292033   25.019130 C.3        1 MOL1         0.0209
       5    H3      21.743843   18.517881   25.402492 H          1 MOL1         0.0967
       6    H4      21.640930   20.224615   24.956692 H          1 MOL1         0.0967
       7    C2      20.593369   18.901605   23.604132 C.3        1 MOL1        -0.1378
       8    H5      21.483276   18.735445   22.985092 H          1 MOL1         0.0993
       9    H6      20.053086   17.947138   23.643293 H          1 MOL1         0.0993
      10    C3      19.707096   19.989232   22.949634 C.3        1 MOL1        -0.1338
      11    H7      20.286264   20.917188   22.845506 H          1 MOL1         0.0993
      12    H8      18.867749   20.225341   23.616755 H          1 MOL1         0.0993
      13    C4      19.119900   19.591040   21.570566 C.3        1 MOL1        -0.1338
      14    H9      18.449659   18.727413   21.680848 H          1 MOL1         0.0993
      15    H10     18.480797   20.418638   21.232729 H          1 MOL1         0.0993
      16    C5      20.173727   19.314757   20.467001 C.3        1 MOL1        -0.1313
      17    H11     21.086013   19.898015   20.654500 H          1 MOL1         0.0993
      18    H12     19.777935   19.675060   19.507034 H          1 MOL1         0.0993
      19    C6      20.516700   17.814918   20.307270 C.3        1 MOL1        -0.2328
      20    H13     21.252724   17.672692   19.505431 H          1 MOL1         0.1004
      21    H14     19.622693   17.234747   20.044223 H          1 MOL1         0.1004
      22    H15     20.937735   17.387141   21.223680 H          1 MOL1         0.1004
      23    C7      19.248719   18.189960   26.350038 C.3        1 MOL1        -0.0781
      24    H16     19.970769   17.453047   26.708344 H          1 MOL1         0.0978
      25    H17     18.493001   18.369489   27.117956 H          1 MOL1         0.0978
      26    H18     18.767798   17.826185   25.439799 H          1 MOL1         0.0978
@<TRIPOS>BOND
    1     1     2    1
    2     1     3    1
    3     1     4    1
    4     4     5    1
    5     4     6    1
    6     4     7    1
    7     7     8    1
    8     7     9    1
    9     7    10    1
   10    10    11    1
   11    10    12    1
   12    10    13    1
   13    13    14    1
   14    13    15    1
   15    13    16    1
   16    16    17    1
   17    16    18    1
   18    16    19    1
   19    19    20    1
   20    19    21    1
   21    19    22    1
   22     1    23    1
   23    23    24    1
   24    23    25    1
   25    23    26    1
@<TRIPOS>SUBSTRUCTURE
       1 MOL1            1 RESIDUE      1      MOL     
@<SCITEGIC>MOL_PROPERTY
VM2 Rank
SciTegic.value.IntegerValue
167

@<SCITEGIC>MOL_PROPERTY
Conf_Id
SciTegic.value.IntegerValue
405

@<SCITEGIC>MOL_PROPERTY
Probability
SciTegic.value.DoubleValue
0.01

@<SCITEGIC>MOL_PROPERTY
Sum Probability
SciTegic.value.DoubleValue
99.94

@<SCITEGIC>MOL_PROPERTY
Delta G
SciTegic.value.DoubleValue
4.068

@<SCITEGIC>MOL_PROPERTY
G
SciTegic.value.DoubleValue
79.534

@<SCITEGIC>MOL_PROPERTY
E
SciTegic.value.DoubleValue
46.742

@<SCITEGIC>MOL_PROPERTY
-TS
SciTegic.value.DoubleValue
32.792

@<SCITEGIC>MOL_PROPERTY
U+W
SciTegic.value.DoubleValue
25.280

@<SCITEGIC>MOL_PROPERTY
U
SciTegic.value.DoubleValue
74.926

@<SCITEGIC>MOL_PROPERTY
W
SciTegic.value.DoubleValue
-49.645

@<SCITEGIC>MOL_PROPERTY
W(PB)
SciTegic.value.DoubleValue
-51.851

@<SCITEGIC>MOL_PROPERTY
W(SA)
SciTegic.value.DoubleValue
2.206

@<SCITEGIC>MOL_PROPERTY
Valence
SciTegic.value.DoubleValue
5.130

@<SCITEGIC>MOL_PROPERTY
Coulomb
SciTegic.value.DoubleValue
69.227

@<SCITEGIC>MOL_PROPERTY
VdW
SciTegic.value.DoubleValue
0.568

@<SCITEGIC>MOL_PROPERTY
VdW6
SciTegic.value.DoubleValue
-8.232

@<SCITEGIC>MOL_PROPERTY
VdW12
SciTegic.value.DoubleValue
8.801

@<SCITEGIC>MOL_PROPERTY
Bond
SciTegic.value.DoubleValue
0.274

@<SCITEGIC>MOL_PROPERTY
Angle
SciTegic.value.DoubleValue
1.422

@<SCITEGIC>MOL_PROPERTY
Pdih
SciTegic.value.DoubleValue
3.434

@<SCITEGIC>MOL_PROPERTY
Idih
SciTegic.value.DoubleValue
0.000

@<SCITEGIC>MOL_PROPERTY
Tether
SciTegic.value.DoubleValue
0.000

@<TRIPOS>MOLECULE
guest-s12_vm2.mol2 : vm2 ligand conformer 168
          26          25           1
SMALL
USER_CHARGES
 
@<TRIPOS>ATOM
       1    N1      20.314889   18.840582   25.884746 N.4        1 MOL1        -0.4857
       2    H1      20.800550   18.085846   26.394846 H          1 MOL1         0.3650
       3    H2      19.490398   19.064457   26.462977 H          1 MOL1         0.3650
       4    C1      19.877133   18.333326   24.521119 C.3        1 MOL1         0.0209
       5    H3      19.372548   17.376392   24.676678 H          1 MOL1         0.0967
       6    H4      20.775557   18.150006   23.927098 H          1 MOL1         0.0967
       7    C2      18.926721   19.281571   23.759638 C.3        1 MOL1        -0.1378
       8    H5      18.056824   19.497676   24.393663 H          1 MOL1         0.0993
       9    H6      19.412496   20.246228   23.572662 H          1 MOL1         0.0993
      10    C3      18.429851   18.678491   22.424155 C.3        1 MOL1        -0.1338
      11    H7      17.749972   19.394172   21.941718 H          1 MOL1         0.0993
      12    H8      17.819773   17.792189   22.647202 H          1 MOL1         0.0993
      13    C4      19.536985   18.270398   21.414491 C.3        1 MOL1        -0.1338
      14    H9      20.179703   17.486651   21.837271 H          1 MOL1         0.0993
      15    H10     19.035366   17.800925   20.556896 H          1 MOL1         0.0993
      16    C5      20.397607   19.442307   20.874507 C.3        1 MOL1        -0.1313
      17    H11     19.799151   20.362276   20.819509 H          1 MOL1         0.0993
      18    H12     20.687391   19.209564   19.840167 H          1 MOL1         0.0993
      19    C6      21.692911   19.691808   21.681894 C.3        1 MOL1        -0.2328
      20    H13     22.295296   20.475462   21.204525 H          1 MOL1         0.1004
      21    H14     22.308000   18.783985   21.730732 H          1 MOL1         0.1004
      22    H15     21.485367   20.018004   22.705698 H          1 MOL1         0.1004
      23    C7      21.231904   20.051517   25.756450 C.3        1 MOL1        -0.0781
      24    H16     20.690485   20.865490   25.270306 H          1 MOL1         0.0978
      25    H17     21.549452   20.365881   26.753157 H          1 MOL1         0.0978
      26    H18     22.105465   19.778359   25.160588 H          1 MOL1         0.0978
@<TRIPOS>BOND
    1     1     2    1
    2     1     3    1
    3     1     4    1
    4     4     5    1
    5     4     6    1
    6     4     7    1
    7     7     8    1
    8     7     9    1
    9     7    10    1
   10    10    11    1
   11    10    12    1
   12    10    13    1
   13    13    14    1
   14    13    15    1
   15    13    16    1
   16    16    17    1
   17    16    18    1
   18    16    19    1
   19    19    20    1
   20    19    21    1
   21    19    22    1
   22     1    23    1
   23    23    24    1
   24    23    25    1
   25    23    26    1
@<TRIPOS>SUBSTRUCTURE
       1 MOL1            1 RESIDUE      1      MOL     
@<SCITEGIC>MOL_PROPERTY
VM2 Rank
SciTegic.value.IntegerValue
168

@<SCITEGIC>MOL_PROPERTY
Conf_Id
SciTegic.value.IntegerValue
464

@<SCITEGIC>MOL_PROPERTY
Probability
SciTegic.value.DoubleValue
0.01

@<SCITEGIC>MOL_PROPERTY
Sum Probability
SciTegic.value.DoubleValue
99.95

@<SCITEGIC>MOL_PROPERTY
Delta G
SciTegic.value.DoubleValue
4.070

@<SCITEGIC>MOL_PROPERTY
G
SciTegic.value.DoubleValue
79.536

@<SCITEGIC>MOL_PROPERTY
E
SciTegic.value.DoubleValue
46.352

@<SCITEGIC>MOL_PROPERTY
-TS
SciTegic.value.DoubleValue
33.184

@<SCITEGIC>MOL_PROPERTY
U+W
SciTegic.value.DoubleValue
24.890

@<SCITEGIC>MOL_PROPERTY
U
SciTegic.value.DoubleValue
75.063

@<SCITEGIC>MOL_PROPERTY
W
SciTegic.value.DoubleValue
-50.173

@<SCITEGIC>MOL_PROPERTY
W(PB)
SciTegic.value.DoubleValue
-52.328

@<SCITEGIC>MOL_PROPERTY
W(SA)
SciTegic.value.DoubleValue
2.155

@<SCITEGIC>MOL_PROPERTY
Valence
SciTegic.value.DoubleValue
5.293

@<SCITEGIC>MOL_PROPERTY
Coulomb
SciTegic.value.DoubleValue
69.832

@<SCITEGIC>MOL_PROPERTY
VdW
SciTegic.value.DoubleValue
-0.063

@<SCITEGIC>MOL_PROPERTY
VdW6
SciTegic.value.DoubleValue
-9.168

@<SCITEGIC>MOL_PROPERTY
VdW12
SciTegic.value.DoubleValue
9.105

@<SCITEGIC>MOL_PROPERTY
Bond
SciTegic.value.DoubleValue
0.277

@<SCITEGIC>MOL_PROPERTY
Angle
SciTegic.value.DoubleValue
1.740

@<SCITEGIC>MOL_PROPERTY
Pdih
SciTegic.value.DoubleValue
3.276

@<SCITEGIC>MOL_PROPERTY
Idih
SciTegic.value.DoubleValue
0.000

@<SCITEGIC>MOL_PROPERTY
Tether
SciTegic.value.DoubleValue
0.000

@<TRIPOS>MOLECULE
guest-s12_vm2.mol2 : vm2 ligand conformer 169
          26          25           1
SMALL
USER_CHARGES
 
@<TRIPOS>ATOM
       1    N1      19.845582   19.483139   26.044685 N.4        1 MOL1        -0.4857
       2    H1      19.308705   19.768162   26.879166 H          1 MOL1         0.3650
       3    H2      20.365849   20.326514   25.760770 H          1 MOL1         0.3650
       4    C1      18.886128   19.063367   24.941673 C.3        1 MOL1         0.0209
       5    H3      18.144979   19.859275   24.832864 H          1 MOL1         0.0967
       6    H4      18.365783   18.164898   25.282971 H          1 MOL1         0.0967
       7    C2      19.535171   18.790911   23.566711 C.3        1 MOL1        -0.1378
       8    H5      20.256473   17.968024   23.650542 H          1 MOL1         0.0993
       9    H6      18.744212   18.449472   22.888069 H          1 MOL1         0.0993
      10    C3      20.221899   20.042627   22.968047 C.3        1 MOL1        -0.1338
      11    H7      20.945861   20.441612   23.690538 H          1 MOL1         0.0993
      12    H8      19.472718   20.832120   22.817027 H          1 MOL1         0.0993
      13    C4      20.973491   19.784180   21.636322 C.3        1 MOL1        -0.1338
      14    H9      21.450541   20.728126   21.338167 H          1 MOL1         0.0993
      15    H10     21.797793   19.076240   21.799367 H          1 MOL1         0.0993
      16    C5      20.078928   19.305121   20.463720 C.3        1 MOL1        -0.1313
      17    H11     20.458095   19.746476   19.531282 H          1 MOL1         0.0993
      18    H12     19.055237   19.686529   20.582875 H          1 MOL1         0.0993
      19    C6      20.064276   17.768052   20.290915 C.3        1 MOL1        -0.2328
      20    H13     19.677477   17.255810   21.178646 H          1 MOL1         0.1004
      21    H14     21.074755   17.386471   20.095030 H          1 MOL1         0.1004
      22    H15     19.431136   17.483345   19.440632 H          1 MOL1         0.1004
      23    C7      20.802525   18.352601   26.404927 C.3        1 MOL1        -0.0781
      24    H16     21.410652   18.102798   25.533187 H          1 MOL1         0.0978
      25    H17     21.449272   18.678786   27.222461 H          1 MOL1         0.0978
      26    H18     20.225139   17.479747   26.717226 H          1 MOL1         0.0978
@<TRIPOS>BOND
    1     1     2    1
    2     1     3    1
    3     1     4    1
    4     4     5    1
    5     4     6    1
    6     4     7    1
    7     7     8    1
    8     7     9    1
    9     7    10    1
   10    10    11    1
   11    10    12    1
   12    10    13    1
   13    13    14    1
   14    13    15    1
   15    13    16    1
   16    16    17    1
   17    16    18    1
   18    16    19    1
   19    19    20    1
   20    19    21    1
   21    19    22    1
   22     1    23    1
   23    23    24    1
   24    23    25    1
   25    23    26    1
@<TRIPOS>SUBSTRUCTURE
       1 MOL1            1 RESIDUE      1      MOL     
@<SCITEGIC>MOL_PROPERTY
VM2 Rank
SciTegic.value.IntegerValue
169

@<SCITEGIC>MOL_PROPERTY
Conf_Id
SciTegic.value.IntegerValue
503

@<SCITEGIC>MOL_PROPERTY
Probability
SciTegic.value.DoubleValue
0.01

@<SCITEGIC>MOL_PROPERTY
Sum Probability
SciTegic.value.DoubleValue
99.95

@<SCITEGIC>MOL_PROPERTY
Delta G
SciTegic.value.DoubleValue
4.092

@<SCITEGIC>MOL_PROPERTY
G
SciTegic.value.DoubleValue
79.558

@<SCITEGIC>MOL_PROPERTY
E
SciTegic.value.DoubleValue
46.766

@<SCITEGIC>MOL_PROPERTY
-TS
SciTegic.value.DoubleValue
32.792

@<SCITEGIC>MOL_PROPERTY
U+W
SciTegic.value.DoubleValue
25.304

@<SCITEGIC>MOL_PROPERTY
U
SciTegic.value.DoubleValue
74.926

@<SCITEGIC>MOL_PROPERTY
W
SciTegic.value.DoubleValue
-49.622

@<SCITEGIC>MOL_PROPERTY
W(PB)
SciTegic.value.DoubleValue
-51.835

@<SCITEGIC>MOL_PROPERTY
W(SA)
SciTegic.value.DoubleValue
2.213

@<SCITEGIC>MOL_PROPERTY
Valence
SciTegic.value.DoubleValue
5.130

@<SCITEGIC>MOL_PROPERTY
Coulomb
SciTegic.value.DoubleValue
69.227

@<SCITEGIC>MOL_PROPERTY
VdW
SciTegic.value.DoubleValue
0.569

@<SCITEGIC>MOL_PROPERTY
VdW6
SciTegic.value.DoubleValue
-8.233

@<SCITEGIC>MOL_PROPERTY
VdW12
SciTegic.value.DoubleValue
8.802

@<SCITEGIC>MOL_PROPERTY
Bond
SciTegic.value.DoubleValue
0.274

@<SCITEGIC>MOL_PROPERTY
Angle
SciTegic.value.DoubleValue
1.422

@<SCITEGIC>MOL_PROPERTY
Pdih
SciTegic.value.DoubleValue
3.434

@<SCITEGIC>MOL_PROPERTY
Idih
SciTegic.value.DoubleValue
0.000

@<SCITEGIC>MOL_PROPERTY
Tether
SciTegic.value.DoubleValue
0.000

@<TRIPOS>MOLECULE
guest-s12_vm2.mol2 : vm2 ligand conformer 170
          26          25           1
SMALL
USER_CHARGES
 
@<TRIPOS>ATOM
       1    N1      19.657978   18.774250   25.861466 N.4        1 MOL1        -0.4857
       2    H1      20.378472   19.154500   26.494359 H          1 MOL1         0.3650
       3    H2      19.298611   17.934077   26.341738 H          1 MOL1         0.3650
       4    C1      20.282733   18.374349   24.535504 C.3        1 MOL1         0.0209
       5    H3      19.482958   18.019300   23.881335 H          1 MOL1         0.0967
       6    H4      20.956276   17.536540   24.732844 H          1 MOL1         0.0967
       7    C2      21.075350   19.498797   23.835734 C.3        1 MOL1        -0.1378
       8    H5      20.420861   20.348177   23.608372 H          1 MOL1         0.0993
       9    H6      21.837917   19.879942   24.527566 H          1 MOL1         0.0993
      10    C3      21.775015   19.016678   22.542624 C.3        1 MOL1        -0.1338
      11    H7      22.532812   18.268671   22.814111 H          1 MOL1         0.0993
      12    H8      22.330179   19.857221   22.103919 H          1 MOL1         0.0993
      13    C4      20.845275   18.402654   21.460835 C.3        1 MOL1        -0.1338
      14    H9      21.489409   18.049023   20.643809 H          1 MOL1         0.0993
      15    H10     20.344224   17.503267   21.843116 H          1 MOL1         0.0993
      16    C5      19.807702   19.382644   20.853636 C.3        1 MOL1        -0.1313
      17    H11     19.643397   19.103946   19.803238 H          1 MOL1         0.0993
      18    H12     20.212535   20.404038   20.834096 H          1 MOL1         0.0993
      19    C6      18.435402   19.362500   21.566607 C.3        1 MOL1        -0.2328
      20    H13     18.012345   18.349713   21.578802 H          1 MOL1         0.1004
      21    H14     17.723424   20.013206   21.042651 H          1 MOL1         0.1004
      22    H15     18.501363   19.716455   22.600056 H          1 MOL1         0.1004
      23    C7      18.528544   19.778127   25.660593 C.3        1 MOL1        -0.0781
      24    H16     18.085553   20.015674   26.630344 H          1 MOL1         0.0978
      25    H17     18.928867   20.687316   25.207669 H          1 MOL1         0.0978
      26    H18     17.771180   19.339887   25.007049 H          1 MOL1         0.0978
@<TRIPOS>BOND
    1     1     2    1
    2     1     3    1
    3     1     4    1
    4     4     5    1
    5     4     6    1
    6     4     7    1
    7     7     8    1
    8     7     9    1
    9     7    10    1
   10    10    11    1
   11    10    12    1
   12    10    13    1
   13    13    14    1
   14    13    15    1
   15    13    16    1
   16    16    17    1
   17    16    18    1
   18    16    19    1
   19    19    20    1
   20    19    21    1
   21    19    22    1
   22     1    23    1
   23    23    24    1
   24    23    25    1
   25    23    26    1
@<TRIPOS>SUBSTRUCTURE
       1 MOL1            1 RESIDUE      1      MOL     
@<SCITEGIC>MOL_PROPERTY
VM2 Rank
SciTegic.value.IntegerValue
170

@<SCITEGIC>MOL_PROPERTY
Conf_Id
SciTegic.value.IntegerValue
462

@<SCITEGIC>MOL_PROPERTY
Probability
SciTegic.value.DoubleValue
0.01

@<SCITEGIC>MOL_PROPERTY
Sum Probability
SciTegic.value.DoubleValue
99.96

@<SCITEGIC>MOL_PROPERTY
Delta G
SciTegic.value.DoubleValue
4.128

@<SCITEGIC>MOL_PROPERTY
G
SciTegic.value.DoubleValue
79.594

@<SCITEGIC>MOL_PROPERTY
E
SciTegic.value.DoubleValue
46.410

@<SCITEGIC>MOL_PROPERTY
-TS
SciTegic.value.DoubleValue
33.184

@<SCITEGIC>MOL_PROPERTY
U+W
SciTegic.value.DoubleValue
24.948

@<SCITEGIC>MOL_PROPERTY
U
SciTegic.value.DoubleValue
75.063

@<SCITEGIC>MOL_PROPERTY
W
SciTegic.value.DoubleValue
-50.114

@<SCITEGIC>MOL_PROPERTY
W(PB)
SciTegic.value.DoubleValue
-52.266

@<SCITEGIC>MOL_PROPERTY
W(SA)
SciTegic.value.DoubleValue
2.151

@<SCITEGIC>MOL_PROPERTY
Valence
SciTegic.value.DoubleValue
5.293

@<SCITEGIC>MOL_PROPERTY
Coulomb
SciTegic.value.DoubleValue
69.832

@<SCITEGIC>MOL_PROPERTY
VdW
SciTegic.value.DoubleValue
-0.063

@<SCITEGIC>MOL_PROPERTY
VdW6
SciTegic.value.DoubleValue
-9.168

@<SCITEGIC>MOL_PROPERTY
VdW12
SciTegic.value.DoubleValue
9.105

@<SCITEGIC>MOL_PROPERTY
Bond
SciTegic.value.DoubleValue
0.277

@<SCITEGIC>MOL_PROPERTY
Angle
SciTegic.value.DoubleValue
1.740

@<SCITEGIC>MOL_PROPERTY
Pdih
SciTegic.value.DoubleValue
3.276

@<SCITEGIC>MOL_PROPERTY
Idih
SciTegic.value.DoubleValue
0.000

@<SCITEGIC>MOL_PROPERTY
Tether
SciTegic.value.DoubleValue
0.000

@<TRIPOS>MOLECULE
guest-s12_vm2.mol2 : vm2 ligand conformer 171
          26          25           1
SMALL
USER_CHARGES
 
@<TRIPOS>ATOM
       1    N1      20.351795   18.264722   25.876872 N.4        1 MOL1        -0.4857
       2    H1      21.228543   18.074953   26.387936 H          1 MOL1         0.3650
       3    H2      20.045398   17.345283   25.523279 H          1 MOL1         0.3650
       4    C1      20.633130   19.206630   24.717964 C.3        1 MOL1         0.0209
       5    H3      21.498553   18.808143   24.183843 H          1 MOL1         0.0967
       6    H4      20.909974   20.178502   25.134029 H          1 MOL1         0.0967
       7    C2      19.459111   19.374717   23.729246 C.3        1 MOL1        -0.1378
       8    H5      19.152656   18.391250   23.356772 H          1 MOL1         0.0993
       9    H6      18.593970   19.786259   24.264559 H          1 MOL1         0.0993
      10    C3      19.803409   20.322963   22.552460 C.3        1 MOL1        -0.1338
      11    H7      20.139102   21.280518   22.974431 H          1 MOL1         0.0993
      12    H8      18.891535   20.554515   21.985061 H          1 MOL1         0.0993
      13    C4      20.898442   19.794544   21.585447 C.3        1 MOL1        -0.1338
      14    H9      21.470191   20.657578   21.217048 H          1 MOL1         0.0993
      15    H10     21.625286   19.168720   22.118632 H          1 MOL1         0.0993
      16    C5      20.358951   19.034732   20.346564 C.3        1 MOL1        -0.1313
      17    H11     21.208862   18.780269   19.697898 H          1 MOL1         0.0993
      18    H12     19.715452   19.701335   19.755521 H          1 MOL1         0.0993
      19    C6      19.586961   17.739313   20.679480 C.3        1 MOL1        -0.2328
      20    H13     20.174957   17.084025   21.335001 H          1 MOL1         0.1004
      21    H14     19.361558   17.181069   19.761637 H          1 MOL1         0.1004
      22    H15     18.630987   17.960035   21.169626 H          1 MOL1         0.1004
      23    C7      19.316201   18.852378   26.828966 C.3        1 MOL1        -0.0781
      24    H16     18.371999   18.988325   26.297952 H          1 MOL1         0.0978
      25    H17     19.170629   18.165919   27.666021 H          1 MOL1         0.0978
      26    H18     19.675257   19.814860   27.199827 H          1 MOL1         0.0978
@<TRIPOS>BOND
    1     1     2    1
    2     1     3    1
    3     1     4    1
    4     4     5    1
    5     4     6    1
    6     4     7    1
    7     7     8    1
    8     7     9    1
    9     7    10    1
   10    10    11    1
   11    10    12    1
   12    10    13    1
   13    13    14    1
   14    13    15    1
   15    13    16    1
   16    16    17    1
   17    16    18    1
   18    16    19    1
   19    19    20    1
   20    19    21    1
   21    19    22    1
   22     1    23    1
   23    23    24    1
   24    23    25    1
   25    23    26    1
@<TRIPOS>SUBSTRUCTURE
       1 MOL1            1 RESIDUE      1      MOL     
@<SCITEGIC>MOL_PROPERTY
VM2 Rank
SciTegic.value.IntegerValue
171

@<SCITEGIC>MOL_PROPERTY
Conf_Id
SciTegic.value.IntegerValue
284

@<SCITEGIC>MOL_PROPERTY
Probability
SciTegic.value.DoubleValue
0.01

@<SCITEGIC>MOL_PROPERTY
Sum Probability
SciTegic.value.DoubleValue
99.97

@<SCITEGIC>MOL_PROPERTY
Delta G
SciTegic.value.DoubleValue
4.269

@<SCITEGIC>MOL_PROPERTY
G
SciTegic.value.DoubleValue
79.735

@<SCITEGIC>MOL_PROPERTY
E
SciTegic.value.DoubleValue
47.027

@<SCITEGIC>MOL_PROPERTY
-TS
SciTegic.value.DoubleValue
32.709

@<SCITEGIC>MOL_PROPERTY
U+W
SciTegic.value.DoubleValue
25.565

@<SCITEGIC>MOL_PROPERTY
U
SciTegic.value.DoubleValue
75.336

@<SCITEGIC>MOL_PROPERTY
W
SciTegic.value.DoubleValue
-49.771

@<SCITEGIC>MOL_PROPERTY
W(PB)
SciTegic.value.DoubleValue
-51.993

@<SCITEGIC>MOL_PROPERTY
W(SA)
SciTegic.value.DoubleValue
2.221

@<SCITEGIC>MOL_PROPERTY
Valence
SciTegic.value.DoubleValue
5.408

@<SCITEGIC>MOL_PROPERTY
Coulomb
SciTegic.value.DoubleValue
69.356

@<SCITEGIC>MOL_PROPERTY
VdW
SciTegic.value.DoubleValue
0.572

@<SCITEGIC>MOL_PROPERTY
VdW6
SciTegic.value.DoubleValue
-8.078

@<SCITEGIC>MOL_PROPERTY
VdW12
SciTegic.value.DoubleValue
8.650

@<SCITEGIC>MOL_PROPERTY
Bond
SciTegic.value.DoubleValue
0.286

@<SCITEGIC>MOL_PROPERTY
Angle
SciTegic.value.DoubleValue
1.497

@<SCITEGIC>MOL_PROPERTY
Pdih
SciTegic.value.DoubleValue
3.625

@<SCITEGIC>MOL_PROPERTY
Idih
SciTegic.value.DoubleValue
0.000

@<SCITEGIC>MOL_PROPERTY
Tether
SciTegic.value.DoubleValue
0.000

@<TRIPOS>MOLECULE
guest-s12_vm2.mol2 : vm2 ligand conformer 172
          26          25           1
SMALL
USER_CHARGES
 
@<TRIPOS>ATOM
       1    N1      20.228791   19.250022   25.695833 N.4        1 MOL1        -0.4857
       2    H1      20.833096   19.970625   25.273129 H          1 MOL1         0.3650
       3    H2      20.869224   18.591942   26.166262 H          1 MOL1         0.3650
       4    C1      19.445714   18.532405   24.614015 C.3        1 MOL1         0.0209
       5    H3      18.780681   19.258902   24.141831 H          1 MOL1         0.0967
       6    H4      18.826354   17.775343   25.101664 H          1 MOL1         0.0967
       7    C2      20.329045   17.857019   23.544030 C.3        1 MOL1        -0.1378
       8    H5      20.938494   17.082301   24.027798 H          1 MOL1         0.0993
       9    H6      19.678010   17.325670   22.841968 H          1 MOL1         0.0993
      10    C3      21.267930   18.830946   22.780209 C.3        1 MOL1        -0.1338
      11    H7      21.886560   18.262335   22.072384 H          1 MOL1         0.0993
      12    H8      21.976915   19.262268   23.499345 H          1 MOL1         0.0993
      13    C4      20.559364   19.993530   22.030919 C.3        1 MOL1        -0.1338
      14    H9      19.678663   20.342389   22.584399 H          1 MOL1         0.0993
      15    H10     21.247783   20.849810   22.013589 H          1 MOL1         0.0993
      16    C5      20.172274   19.689324   20.560871 C.3        1 MOL1        -0.1313
      17    H11     21.074569   19.445456   19.982833 H          1 MOL1         0.0993
      18    H12     19.765998   20.607726   20.114376 H          1 MOL1         0.0993
      19    C6      19.133117   18.559940   20.391123 C.3        1 MOL1        -0.2328
      20    H13     19.570778   17.579803   20.614310 H          1 MOL1         0.1004
      21    H14     18.771992   18.525038   19.355144 H          1 MOL1         0.1004
      22    H15     18.264927   18.715996   21.044379 H          1 MOL1         0.1004
      23    C7      19.271765   19.876814   26.700002 C.3        1 MOL1        -0.0781
      24    H16     18.626955   20.591449   26.183843 H          1 MOL1         0.0978
      25    H17     18.664177   19.091586   27.155157 H          1 MOL1         0.0978
      26    H18     19.848659   20.390946   27.471985 H          1 MOL1         0.0978
@<TRIPOS>BOND
    1     1     2    1
    2     1     3    1
    3     1     4    1
    4     4     5    1
    5     4     6    1
    6     4     7    1
    7     7     8    1
    8     7     9    1
    9     7    10    1
   10    10    11    1
   11    10    12    1
   12    10    13    1
   13    13    14    1
   14    13    15    1
   15    13    16    1
   16    16    17    1
   17    16    18    1
   18    16    19    1
   19    19    20    1
   20    19    21    1
   21    19    22    1
   22     1    23    1
   23    23    24    1
   24    23    25    1
   25    23    26    1
@<TRIPOS>SUBSTRUCTURE
       1 MOL1            1 RESIDUE      1      MOL     
@<SCITEGIC>MOL_PROPERTY
VM2 Rank
SciTegic.value.IntegerValue
172

@<SCITEGIC>MOL_PROPERTY
Conf_Id
SciTegic.value.IntegerValue
1080

@<SCITEGIC>MOL_PROPERTY
Probability
SciTegic.value.DoubleValue
0.01

@<SCITEGIC>MOL_PROPERTY
Sum Probability
SciTegic.value.DoubleValue
99.97

@<SCITEGIC>MOL_PROPERTY
Delta G
SciTegic.value.DoubleValue
4.278

@<SCITEGIC>MOL_PROPERTY
G
SciTegic.value.DoubleValue
79.744

@<SCITEGIC>MOL_PROPERTY
E
SciTegic.value.DoubleValue
47.306

@<SCITEGIC>MOL_PROPERTY
-TS
SciTegic.value.DoubleValue
32.437

@<SCITEGIC>MOL_PROPERTY
U+W
SciTegic.value.DoubleValue
25.845

@<SCITEGIC>MOL_PROPERTY
U
SciTegic.value.DoubleValue
75.362

@<SCITEGIC>MOL_PROPERTY
W
SciTegic.value.DoubleValue
-49.518

@<SCITEGIC>MOL_PROPERTY
W(PB)
SciTegic.value.DoubleValue
-51.734

@<SCITEGIC>MOL_PROPERTY
W(SA)
SciTegic.value.DoubleValue
2.216

@<SCITEGIC>MOL_PROPERTY
Valence
SciTegic.value.DoubleValue
5.261

@<SCITEGIC>MOL_PROPERTY
Coulomb
SciTegic.value.DoubleValue
69.862

@<SCITEGIC>MOL_PROPERTY
VdW
SciTegic.value.DoubleValue
0.240

@<SCITEGIC>MOL_PROPERTY
VdW6
SciTegic.value.DoubleValue
-8.241

@<SCITEGIC>MOL_PROPERTY
VdW12
SciTegic.value.DoubleValue
8.481

@<SCITEGIC>MOL_PROPERTY
Bond
SciTegic.value.DoubleValue
0.287

@<SCITEGIC>MOL_PROPERTY
Angle
SciTegic.value.DoubleValue
1.775

@<SCITEGIC>MOL_PROPERTY
Pdih
SciTegic.value.DoubleValue
3.199

@<SCITEGIC>MOL_PROPERTY
Idih
SciTegic.value.DoubleValue
0.000

@<SCITEGIC>MOL_PROPERTY
Tether
SciTegic.value.DoubleValue
0.000

@<TRIPOS>MOLECULE
guest-s12_vm2.mol2 : vm2 ligand conformer 173
          26          25           1
SMALL
USER_CHARGES
 
@<TRIPOS>ATOM
       1    N1      18.981186   19.354211   25.007351 N.4        1 MOL1        -0.4857
       2    H1      17.982413   19.110873   25.102093 H          1 MOL1         0.3650
       3    H2      19.019283   20.065485   24.262621 H          1 MOL1         0.3650
       4    C1      19.769962   18.123111   24.589532 C.3        1 MOL1         0.0209
       5    H3      19.257481   17.671897   23.737604 H          1 MOL1         0.0967
       6    H4      19.728091   17.408828   25.415667 H          1 MOL1         0.0967
       7    C2      21.244228   18.385882   24.213117 C.3        1 MOL1        -0.1378
       8    H5      21.785012   18.713096   25.110544 H          1 MOL1         0.0993
       9    H6      21.705701   17.433720   23.920084 H          1 MOL1         0.0993
      10    C3      21.466417   19.430101   23.086253 C.3        1 MOL1        -0.1338
      11    H7      22.550384   19.589805   23.002679 H          1 MOL1         0.0993
      12    H8      21.051439   20.405494   23.372988 H          1 MOL1         0.0993
      13    C4      20.944746   19.008569   21.687150 C.3        1 MOL1        -0.1338
      14    H9      21.548722   19.528038   20.930192 H          1 MOL1         0.0993
      15    H10     21.119559   17.935637   21.527839 H          1 MOL1         0.0993
      16    C5      19.457784   19.353108   21.429168 C.3        1 MOL1        -0.1313
      17    H11     19.287892   20.423486   21.610596 H          1 MOL1         0.0993
      18    H12     18.806034   18.805436   22.118665 H          1 MOL1         0.0993
      19    C6      19.040526   19.013018   19.982452 C.3        1 MOL1        -0.2328
      20    H13     19.638922   19.576852   19.254978 H          1 MOL1         0.1004
      21    H14     17.984783   19.262493   19.814507 H          1 MOL1         0.1004
      22    H15     19.170496   17.942729   19.775547 H          1 MOL1         0.1004
      23    C7      19.503151   19.921999   26.321976 C.3        1 MOL1        -0.0781
      24    H16     19.436635   19.154077   27.095681 H          1 MOL1         0.0978
      25    H17     20.542676   20.230641   26.194224 H          1 MOL1         0.0978
      26    H18     18.895805   20.784511   26.605184 H          1 MOL1         0.0978
@<TRIPOS>BOND
    1     1     2    1
    2     1     3    1
    3     1     4    1
    4     4     5    1
    5     4     6    1
    6     4     7    1
    7     7     8    1
    8     7     9    1
    9     7    10    1
   10    10    11    1
   11    10    12    1
   12    10    13    1
   13    13    14    1
   14    13    15    1
   15    13    16    1
   16    16    17    1
   17    16    18    1
   18    16    19    1
   19    19    20    1
   20    19    21    1
   21    19    22    1
   22     1    23    1
   23    23    24    1
   24    23    25    1
   25    23    26    1
@<TRIPOS>SUBSTRUCTURE
       1 MOL1            1 RESIDUE      1      MOL     
@<SCITEGIC>MOL_PROPERTY
VM2 Rank
SciTegic.value.IntegerValue
173

@<SCITEGIC>MOL_PROPERTY
Conf_Id
SciTegic.value.IntegerValue
1574

@<SCITEGIC>MOL_PROPERTY
Probability
SciTegic.value.DoubleValue
0.01

@<SCITEGIC>MOL_PROPERTY
Sum Probability
SciTegic.value.DoubleValue
99.98

@<SCITEGIC>MOL_PROPERTY
Delta G
SciTegic.value.DoubleValue
4.290

@<SCITEGIC>MOL_PROPERTY
G
SciTegic.value.DoubleValue
79.756

@<SCITEGIC>MOL_PROPERTY
E
SciTegic.value.DoubleValue
46.886

@<SCITEGIC>MOL_PROPERTY
-TS
SciTegic.value.DoubleValue
32.869

@<SCITEGIC>MOL_PROPERTY
U+W
SciTegic.value.DoubleValue
25.424

@<SCITEGIC>MOL_PROPERTY
U
SciTegic.value.DoubleValue
75.499

@<SCITEGIC>MOL_PROPERTY
W
SciTegic.value.DoubleValue
-50.074

@<SCITEGIC>MOL_PROPERTY
W(PB)
SciTegic.value.DoubleValue
-52.287

@<SCITEGIC>MOL_PROPERTY
W(SA)
SciTegic.value.DoubleValue
2.213

@<SCITEGIC>MOL_PROPERTY
Valence
SciTegic.value.DoubleValue
4.692

@<SCITEGIC>MOL_PROPERTY
Coulomb
SciTegic.value.DoubleValue
70.717

@<SCITEGIC>MOL_PROPERTY
VdW
SciTegic.value.DoubleValue
0.090

@<SCITEGIC>MOL_PROPERTY
VdW6
SciTegic.value.DoubleValue
-8.740

@<SCITEGIC>MOL_PROPERTY
VdW12
SciTegic.value.DoubleValue
8.830

@<SCITEGIC>MOL_PROPERTY
Bond
SciTegic.value.DoubleValue
0.270

@<SCITEGIC>MOL_PROPERTY
Angle
SciTegic.value.DoubleValue
1.624

@<SCITEGIC>MOL_PROPERTY
Pdih
SciTegic.value.DoubleValue
2.799

@<SCITEGIC>MOL_PROPERTY
Idih
SciTegic.value.DoubleValue
0.000

@<SCITEGIC>MOL_PROPERTY
Tether
SciTegic.value.DoubleValue
0.000

@<TRIPOS>MOLECULE
guest-s12_vm2.mol2 : vm2 ligand conformer 174
          26          25           1
SMALL
USER_CHARGES
 
@<TRIPOS>ATOM
       1    N1      20.919634   19.551093   25.076108 N.4        1 MOL1        -0.4857
       2    H1      20.791864   20.245476   24.325448 H          1 MOL1         0.3650
       3    H2      21.937761   19.512611   25.242460 H          1 MOL1         0.3650
       4    C1      20.425454   18.189660   24.612815 C.3        1 MOL1         0.0209
       5    H3      20.551875   17.492498   25.444942 H          1 MOL1         0.0967
       6    H4      21.076579   17.856617   23.802181 H          1 MOL1         0.0967
       7    C2      18.958558   18.153650   24.132069 C.3        1 MOL1        -0.1378
       8    H5      18.719454   17.130333   23.814114 H          1 MOL1         0.0993
       9    H6      18.301503   18.359106   24.987030 H          1 MOL1         0.0993
      10    C3      18.610713   19.140049   22.985070 C.3        1 MOL1        -0.1338
      11    H7      18.800269   20.176816   23.293280 H          1 MOL1         0.0993
      12    H8      17.525324   19.079456   22.824648 H          1 MOL1         0.0993
      13    C4      19.303068   18.841900   21.628947 C.3        1 MOL1        -0.1338
      14    H9      19.358668   17.756895   21.465258 H          1 MOL1         0.0993
      15    H10     18.661693   19.235115   20.827922 H          1 MOL1         0.0993
      16    C5      20.705018   19.479606   21.473417 C.3        1 MOL1        -0.1313
      17    H11     21.403498   19.068702   22.210586 H          1 MOL1         0.0993
      18    H12     20.643608   20.560934   21.659011 H          1 MOL1         0.0993
      19    C6      21.282230   19.240845   20.061831 C.3        1 MOL1        -0.2328
      20    H13     21.384397   18.167800   19.853602 H          1 MOL1         0.1004
      21    H14     22.275587   19.698235   19.966571 H          1 MOL1         0.1004
      22    H15     20.635318   19.678585   19.290408 H          1 MOL1         0.1004
      23    C7      20.203325   19.993198   26.346743 C.3        1 MOL1        -0.0781
      24    H16     20.368208   19.248827   27.128711 H          1 MOL1         0.0978
      25    H17     20.603702   20.958076   26.665668 H          1 MOL1         0.0978
      26    H18     19.134583   20.087709   26.144139 H          1 MOL1         0.0978
@<TRIPOS>BOND
    1     1     2    1
    2     1     3    1
    3     1     4    1
    4     4     5    1
    5     4     6    1
    6     4     7    1
    7     7     8    1
    8     7     9    1
    9     7    10    1
   10    10    11    1
   11    10    12    1
   12    10    13    1
   13    13    14    1
   14    13    15    1
   15    13    16    1
   16    16    17    1
   17    16    18    1
   18    16    19    1
   19    19    20    1
   20    19    21    1
   21    19    22    1
   22     1    23    1
   23    23    24    1
   24    23    25    1
   25    23    26    1
@<TRIPOS>SUBSTRUCTURE
       1 MOL1            1 RESIDUE      1      MOL     
@<SCITEGIC>MOL_PROPERTY
VM2 Rank
SciTegic.value.IntegerValue
174

@<SCITEGIC>MOL_PROPERTY
Conf_Id
SciTegic.value.IntegerValue
280

@<SCITEGIC>MOL_PROPERTY
Probability
SciTegic.value.DoubleValue
0.00

@<SCITEGIC>MOL_PROPERTY
Sum Probability
SciTegic.value.DoubleValue
99.98

@<SCITEGIC>MOL_PROPERTY
Delta G
SciTegic.value.DoubleValue
4.388

@<SCITEGIC>MOL_PROPERTY
G
SciTegic.value.DoubleValue
79.854

@<SCITEGIC>MOL_PROPERTY
E
SciTegic.value.DoubleValue
46.985

@<SCITEGIC>MOL_PROPERTY
-TS
SciTegic.value.DoubleValue
32.869

@<SCITEGIC>MOL_PROPERTY
U+W
SciTegic.value.DoubleValue
25.523

@<SCITEGIC>MOL_PROPERTY
U
SciTegic.value.DoubleValue
75.499

@<SCITEGIC>MOL_PROPERTY
W
SciTegic.value.DoubleValue
-49.976

@<SCITEGIC>MOL_PROPERTY
W(PB)
SciTegic.value.DoubleValue
-52.163

@<SCITEGIC>MOL_PROPERTY
W(SA)
SciTegic.value.DoubleValue
2.187

@<SCITEGIC>MOL_PROPERTY
Valence
SciTegic.value.DoubleValue
4.692

@<SCITEGIC>MOL_PROPERTY
Coulomb
SciTegic.value.DoubleValue
70.717

@<SCITEGIC>MOL_PROPERTY
VdW
SciTegic.value.DoubleValue
0.090

@<SCITEGIC>MOL_PROPERTY
VdW6
SciTegic.value.DoubleValue
-8.740

@<SCITEGIC>MOL_PROPERTY
VdW12
SciTegic.value.DoubleValue
8.830

@<SCITEGIC>MOL_PROPERTY
Bond
SciTegic.value.DoubleValue
0.270

@<SCITEGIC>MOL_PROPERTY
Angle
SciTegic.value.DoubleValue
1.624

@<SCITEGIC>MOL_PROPERTY
Pdih
SciTegic.value.DoubleValue
2.798

@<SCITEGIC>MOL_PROPERTY
Idih
SciTegic.value.DoubleValue
0.000

@<SCITEGIC>MOL_PROPERTY
Tether
SciTegic.value.DoubleValue
0.000

@<TRIPOS>MOLECULE
guest-s12_vm2.mol2 : vm2 ligand conformer 175
          26          25           1
SMALL
USER_CHARGES
 
@<TRIPOS>ATOM
       1    N1      20.135950   19.290459   25.546147 N.4        1 MOL1        -0.4857
       2    H1      20.896059   19.880164   25.175418 H          1 MOL1         0.3650
       3    H2      20.594968   18.601880   26.162320 H          1 MOL1         0.3650
       4    C1      19.429116   18.581874   24.407620 C.3        1 MOL1         0.0209
       5    H3      18.950280   19.341640   23.785506 H          1 MOL1         0.0967
       6    H4      18.646829   17.954394   24.842143 H          1 MOL1         0.0967
       7    C2      20.362559   17.712587   23.540172 C.3        1 MOL1        -0.1378
       8    H5      20.814097   16.934893   24.170223 H          1 MOL1         0.0993
       9    H6      19.767009   17.176444   22.791437 H          1 MOL1         0.0993
      10    C3      21.488252   18.510481   22.834578 C.3        1 MOL1        -0.1338
      11    H7      22.073214   17.819997   22.211489 H          1 MOL1         0.0993
      12    H8      22.189176   18.883075   23.593557 H          1 MOL1         0.0993
      13    C4      21.023881   19.708476   21.962135 C.3        1 MOL1        -0.1338
      14    H9      20.495475   20.454261   22.570794 H          1 MOL1         0.0993
      15    H10     21.929644   20.217235   21.603983 H          1 MOL1         0.0993
      16    C5      20.176865   19.327028   20.720067 C.3        1 MOL1        -0.1313
      17    H11     20.497182   18.353599   20.323403 H          1 MOL1         0.0993
      18    H12     20.382759   20.058011   19.925536 H          1 MOL1         0.0993
      19    C6      18.651477   19.326771   20.975198 C.3        1 MOL1        -0.2328
      20    H13     18.350535   18.550165   21.685597 H          1 MOL1         0.1004
      21    H14     18.108554   19.141049   20.039440 H          1 MOL1         0.1004
      22    H15     18.316786   20.296464   21.365806 H          1 MOL1         0.1004
      23    C7      19.139901   20.132324   26.331083 C.3        1 MOL1        -0.0781
      24    H16     19.662174   20.637711   27.146499 H          1 MOL1         0.0978
      25    H17     18.691819   20.872765   25.664849 H          1 MOL1         0.0978
      26    H18     18.362494   19.482001   26.738048 H          1 MOL1         0.0978
@<TRIPOS>BOND
    1     1     2    1
    2     1     3    1
    3     1     4    1
    4     4     5    1
    5     4     6    1
    6     4     7    1
    7     7     8    1
    8     7     9    1
    9     7    10    1
   10    10    11    1
   11    10    12    1
   12    10    13    1
   13    13    14    1
   14    13    15    1
   15    13    16    1
   16    16    17    1
   17    16    18    1
   18    16    19    1
   19    19    20    1
   20    19    21    1
   21    19    22    1
   22     1    23    1
   23    23    24    1
   24    23    25    1
   25    23    26    1
@<TRIPOS>SUBSTRUCTURE
       1 MOL1            1 RESIDUE      1      MOL     
@<SCITEGIC>MOL_PROPERTY
VM2 Rank
SciTegic.value.IntegerValue
175

@<SCITEGIC>MOL_PROPERTY
Conf_Id
SciTegic.value.IntegerValue
1116

@<SCITEGIC>MOL_PROPERTY
Probability
SciTegic.value.DoubleValue
0.00

@<SCITEGIC>MOL_PROPERTY
Sum Probability
SciTegic.value.DoubleValue
99.98

@<SCITEGIC>MOL_PROPERTY
Delta G
SciTegic.value.DoubleValue
4.478

@<SCITEGIC>MOL_PROPERTY
G
SciTegic.value.DoubleValue
79.944

@<SCITEGIC>MOL_PROPERTY
E
SciTegic.value.DoubleValue
46.915

@<SCITEGIC>MOL_PROPERTY
-TS
SciTegic.value.DoubleValue
33.028

@<SCITEGIC>MOL_PROPERTY
U+W
SciTegic.value.DoubleValue
25.454

@<SCITEGIC>MOL_PROPERTY
U
SciTegic.value.DoubleValue
75.077

@<SCITEGIC>MOL_PROPERTY
W
SciTegic.value.DoubleValue
-49.624

@<SCITEGIC>MOL_PROPERTY
W(PB)
SciTegic.value.DoubleValue
-51.822

@<SCITEGIC>MOL_PROPERTY
W(SA)
SciTegic.value.DoubleValue
2.198

@<SCITEGIC>MOL_PROPERTY
Valence
SciTegic.value.DoubleValue
5.122

@<SCITEGIC>MOL_PROPERTY
Coulomb
SciTegic.value.DoubleValue
70.113

@<SCITEGIC>MOL_PROPERTY
VdW
SciTegic.value.DoubleValue
-0.157

@<SCITEGIC>MOL_PROPERTY
VdW6
SciTegic.value.DoubleValue
-8.845

@<SCITEGIC>MOL_PROPERTY
VdW12
SciTegic.value.DoubleValue
8.687

@<SCITEGIC>MOL_PROPERTY
Bond
SciTegic.value.DoubleValue
0.261

@<SCITEGIC>MOL_PROPERTY
Angle
SciTegic.value.DoubleValue
1.746

@<SCITEGIC>MOL_PROPERTY
Pdih
SciTegic.value.DoubleValue
3.115

@<SCITEGIC>MOL_PROPERTY
Idih
SciTegic.value.DoubleValue
0.000

@<SCITEGIC>MOL_PROPERTY
Tether
SciTegic.value.DoubleValue
0.000

@<TRIPOS>MOLECULE
guest-s12_vm2.mol2 : vm2 ligand conformer 176
          26          25           1
SMALL
USER_CHARGES
 
@<TRIPOS>ATOM
       1    N1      19.483340   18.286881   24.912103 N.4        1 MOL1        -0.4857
       2    H1      19.453330   17.417147   25.467680 H          1 MOL1         0.3650
       3    H2      19.395219   17.989978   23.929463 H          1 MOL1         0.3650
       4    C1      20.817146   18.983135   25.127167 C.3        1 MOL1         0.0209
       5    H3      21.602306   18.223612   25.093903 H          1 MOL1         0.0967
       6    H4      20.799346   19.401510   26.136669 H          1 MOL1         0.0967
       7    C2      21.154497   20.101431   24.114519 C.3        1 MOL1        -0.1378
       8    H5      20.284112   20.747126   23.946520 H          1 MOL1         0.0993
       9    H6      21.911791   20.747840   24.577330 H          1 MOL1         0.0993
      10    C3      21.733481   19.590935   22.767459 C.3        1 MOL1        -0.1338
      11    H7      22.669674   19.051840   22.968298 H          1 MOL1         0.0993
      12    H8      22.016208   20.459670   22.156985 H          1 MOL1         0.0993
      13    C4      20.806962   18.674836   21.927692 C.3        1 MOL1        -0.1338
      14    H9      21.350018   18.379845   21.019021 H          1 MOL1         0.0993
      15    H10     20.610394   17.739902   22.466443 H          1 MOL1         0.0993
      16    C5      19.478316   19.349434   21.510579 C.3        1 MOL1        -0.1313
      17    H11     19.693739   20.267506   20.946133 H          1 MOL1         0.0993
      18    H12     18.903786   19.653530   22.394234 H          1 MOL1         0.0993
      19    C6      18.610055   18.410355   20.646655 C.3        1 MOL1        -0.2328
      20    H13     18.349343   17.495457   21.194311 H          1 MOL1         0.1004
      21    H14     19.136217   18.120112   19.727870 H          1 MOL1         0.1004
      22    H15     17.674855   18.906122   20.355639 H          1 MOL1         0.1004
      23    C7      18.324204   19.192992   25.310828 C.3        1 MOL1        -0.0781
      24    H16     18.335905   20.091676   24.691267 H          1 MOL1         0.0978
      25    H17     17.384178   18.656681   25.163258 H          1 MOL1         0.0978
      26    H18     18.430136   19.467643   26.362563 H          1 MOL1         0.0978
@<TRIPOS>BOND
    1     1     2    1
    2     1     3    1
    3     1     4    1
    4     4     5    1
    5     4     6    1
    6     4     7    1
    7     7     8    1
    8     7     9    1
    9     7    10    1
   10    10    11    1
   11    10    12    1
   12    10    13    1
   13    13    14    1
   14    13    15    1
   15    13    16    1
   16    16    17    1
   17    16    18    1
   18    16    19    1
   19    19    20    1
   20    19    21    1
   21    19    22    1
   22     1    23    1
   23    23    24    1
   24    23    25    1
   25    23    26    1
@<TRIPOS>SUBSTRUCTURE
       1 MOL1            1 RESIDUE      1      MOL     
@<SCITEGIC>MOL_PROPERTY
VM2 Rank
SciTegic.value.IntegerValue
176

@<SCITEGIC>MOL_PROPERTY
Conf_Id
SciTegic.value.IntegerValue
556

@<SCITEGIC>MOL_PROPERTY
Probability
SciTegic.value.DoubleValue
0.00

@<SCITEGIC>MOL_PROPERTY
Sum Probability
SciTegic.value.DoubleValue
99.99

@<SCITEGIC>MOL_PROPERTY
Delta G
SciTegic.value.DoubleValue
4.874

@<SCITEGIC>MOL_PROPERTY
G
SciTegic.value.DoubleValue
80.340

@<SCITEGIC>MOL_PROPERTY
E
SciTegic.value.DoubleValue
47.027

@<SCITEGIC>MOL_PROPERTY
-TS
SciTegic.value.DoubleValue
33.313

@<SCITEGIC>MOL_PROPERTY
U+W
SciTegic.value.DoubleValue
25.566

@<SCITEGIC>MOL_PROPERTY
U
SciTegic.value.DoubleValue
74.993

@<SCITEGIC>MOL_PROPERTY
W
SciTegic.value.DoubleValue
-49.427

@<SCITEGIC>MOL_PROPERTY
W(PB)
SciTegic.value.DoubleValue
-51.599

@<SCITEGIC>MOL_PROPERTY
W(SA)
SciTegic.value.DoubleValue
2.172

@<SCITEGIC>MOL_PROPERTY
Valence
SciTegic.value.DoubleValue
4.235

@<SCITEGIC>MOL_PROPERTY
Coulomb
SciTegic.value.DoubleValue
71.017

@<SCITEGIC>MOL_PROPERTY
VdW
SciTegic.value.DoubleValue
-0.259

@<SCITEGIC>MOL_PROPERTY
VdW6
SciTegic.value.DoubleValue
-9.385

@<SCITEGIC>MOL_PROPERTY
VdW12
SciTegic.value.DoubleValue
9.126

@<SCITEGIC>MOL_PROPERTY
Bond
SciTegic.value.DoubleValue
0.262

@<SCITEGIC>MOL_PROPERTY
Angle
SciTegic.value.DoubleValue
1.598

@<SCITEGIC>MOL_PROPERTY
Pdih
SciTegic.value.DoubleValue
2.376

@<SCITEGIC>MOL_PROPERTY
Idih
SciTegic.value.DoubleValue
0.000

@<SCITEGIC>MOL_PROPERTY
Tether
SciTegic.value.DoubleValue
0.000

@<TRIPOS>MOLECULE
guest-s12_vm2.mol2 : vm2 ligand conformer 177
          26          25           1
SMALL
USER_CHARGES
 
@<TRIPOS>ATOM
       1    N1      20.677807   18.667859   25.506627 N.4        1 MOL1        -0.4857
       2    H1      20.959592   17.884820   24.898596 H          1 MOL1         0.3650
       3    H2      20.975307   18.390877   26.455508 H          1 MOL1         0.3650
       4    C1      19.168230   18.837300   25.482641 C.3        1 MOL1         0.0209
       5    H3      18.939535   19.875014   25.737821 H          1 MOL1         0.0967
       6    H4      18.771088   18.206674   26.282179 H          1 MOL1         0.0967
       7    C2      18.454556   18.441247   24.168178 C.3        1 MOL1        -0.1378
       8    H5      18.617313   17.375915   23.958032 H          1 MOL1         0.0993
       9    H6      17.375947   18.546745   24.345031 H          1 MOL1         0.0993
      10    C3      18.824990   19.299729   22.931988 C.3        1 MOL1        -0.1338
      11    H7      19.043152   20.330347   23.243367 H          1 MOL1         0.0993
      12    H8      17.945436   19.362551   22.276277 H          1 MOL1         0.0993
      13    C4      19.998077   18.715623   22.106777 C.3        1 MOL1        -0.1338
      14    H9      20.881621   18.572959   22.739266 H          1 MOL1         0.0993
      15    H10     19.719408   17.720637   21.732969 H          1 MOL1         0.0993
      16    C5      20.368430   19.624639   20.913930 C.3        1 MOL1        -0.1313
      17    H11     20.646370   20.622857   21.280297 H          1 MOL1         0.0993
      18    H12     19.492946   19.758621   20.263126 H          1 MOL1         0.0993
      19    C6      21.534969   19.039742   20.089431 C.3        1 MOL1        -0.2328
      20    H13     21.782842   19.698553   19.247095 H          1 MOL1         0.1004
      21    H14     21.274857   18.054513   19.680959 H          1 MOL1         0.1004
      22    H15     22.436693   18.927259   20.705409 H          1 MOL1         0.1004
      23    C7      21.380941   19.963861   25.117427 C.3        1 MOL1        -0.0781
      24    H16     21.097540   20.749241   25.821449 H          1 MOL1         0.0978
      25    H17     22.461544   19.809169   25.154653 H          1 MOL1         0.0978
      26    H18     21.084864   20.251198   24.107272 H          1 MOL1         0.0978
@<TRIPOS>BOND
    1     1     2    1
    2     1     3    1
    3     1     4    1
    4     4     5    1
    5     4     6    1
    6     4     7    1
    7     7     8    1
    8     7     9    1
    9     7    10    1
   10    10    11    1
   11    10    12    1
   12    10    13    1
   13    13    14    1
   14    13    15    1
   15    13    16    1
   16    16    17    1
   17    16    18    1
   18    16    19    1
   19    19    20    1
   20    19    21    1
   21    19    22    1
   22     1    23    1
   23    23    24    1
   24    23    25    1
   25    23    26    1
@<TRIPOS>SUBSTRUCTURE
       1 MOL1            1 RESIDUE      1      MOL     
@<SCITEGIC>MOL_PROPERTY
VM2 Rank
SciTegic.value.IntegerValue
177

@<SCITEGIC>MOL_PROPERTY
Conf_Id
SciTegic.value.IntegerValue
253

@<SCITEGIC>MOL_PROPERTY
Probability
SciTegic.value.DoubleValue
0.00

@<SCITEGIC>MOL_PROPERTY
Sum Probability
SciTegic.value.DoubleValue
99.99

@<SCITEGIC>MOL_PROPERTY
Delta G
SciTegic.value.DoubleValue
4.892

@<SCITEGIC>MOL_PROPERTY
G
SciTegic.value.DoubleValue
80.358

@<SCITEGIC>MOL_PROPERTY
E
SciTegic.value.DoubleValue
47.446

@<SCITEGIC>MOL_PROPERTY
-TS
SciTegic.value.DoubleValue
32.911

@<SCITEGIC>MOL_PROPERTY
U+W
SciTegic.value.DoubleValue
25.985

@<SCITEGIC>MOL_PROPERTY
U
SciTegic.value.DoubleValue
76.026

@<SCITEGIC>MOL_PROPERTY
W
SciTegic.value.DoubleValue
-50.041

@<SCITEGIC>MOL_PROPERTY
W(PB)
SciTegic.value.DoubleValue
-52.258

@<SCITEGIC>MOL_PROPERTY
W(SA)
SciTegic.value.DoubleValue
2.217

@<SCITEGIC>MOL_PROPERTY
Valence
SciTegic.value.DoubleValue
5.957

@<SCITEGIC>MOL_PROPERTY
Coulomb
SciTegic.value.DoubleValue
70.111

@<SCITEGIC>MOL_PROPERTY
VdW
SciTegic.value.DoubleValue
-0.042

@<SCITEGIC>MOL_PROPERTY
VdW6
SciTegic.value.DoubleValue
-8.365

@<SCITEGIC>MOL_PROPERTY
VdW12
SciTegic.value.DoubleValue
8.323

@<SCITEGIC>MOL_PROPERTY
Bond
SciTegic.value.DoubleValue
0.228

@<SCITEGIC>MOL_PROPERTY
Angle
SciTegic.value.DoubleValue
1.343

@<SCITEGIC>MOL_PROPERTY
Pdih
SciTegic.value.DoubleValue
4.386

@<SCITEGIC>MOL_PROPERTY
Idih
SciTegic.value.DoubleValue
0.000

@<SCITEGIC>MOL_PROPERTY
Tether
SciTegic.value.DoubleValue
0.000

@<TRIPOS>MOLECULE
guest-s12_vm2.mol2 : vm2 ligand conformer 178
          26          25           1
SMALL
USER_CHARGES
 
@<TRIPOS>ATOM
       1    N1      19.230301   19.181826   25.013700 N.4        1 MOL1        -0.4857
       2    H1      18.540816   18.439967   24.817295 H          1 MOL1         0.3650
       3    H2      19.115145   19.875938   24.261350 H          1 MOL1         0.3650
       4    C1      20.633534   18.609379   24.978713 C.3        1 MOL1         0.0209
       5    H3      20.680675   17.836393   25.749946 H          1 MOL1         0.0967
       6    H4      21.335485   19.401855   25.249862 H          1 MOL1         0.0967
       7    C2      21.041475   17.995334   23.622832 C.3        1 MOL1        -0.1378
       8    H5      21.880411   17.311964   23.809536 H          1 MOL1         0.0993
       9    H6      20.232076   17.367697   23.228969 H          1 MOL1         0.0993
      10    C3      21.506328   19.032645   22.565857 C.3        1 MOL1        -0.1338
      11    H7      21.912277   18.492868   21.699940 H          1 MOL1         0.0993
      12    H8      22.352862   19.599746   22.977062 H          1 MOL1         0.0993
      13    C4      20.430715   20.037885   22.073994 C.3        1 MOL1        -0.1338
      14    H9      20.149602   20.709180   22.894781 H          1 MOL1         0.0993
      15    H10     20.888669   20.689277   21.316743 H          1 MOL1         0.0993
      16    C5      19.156783   19.397118   21.464999 C.3        1 MOL1        -0.1313
      17    H11     18.464629   20.200123   21.175092 H          1 MOL1         0.0993
      18    H12     18.627093   18.799031   22.217130 H          1 MOL1         0.0993
      19    C6      19.447474   18.521940   20.224917 C.3        1 MOL1        -0.2328
      20    H13     20.047379   17.641224   20.485845 H          1 MOL1         0.1004
      21    H14     19.987964   19.091241   19.457645 H          1 MOL1         0.1004
      22    H15     18.510816   18.163289   19.778933 H          1 MOL1         0.1004
      23    C7      18.961390   19.813874   26.371987 C.3        1 MOL1        -0.0781
      24    H16     19.683602   20.614794   26.544758 H          1 MOL1         0.0978
      25    H17     17.948159   20.221705   26.383420 H          1 MOL1         0.0978
      26    H18     19.061071   19.052062   27.148270 H          1 MOL1         0.0978
@<TRIPOS>BOND
    1     1     2    1
    2     1     3    1
    3     1     4    1
    4     4     5    1
    5     4     6    1
    6     4     7    1
    7     7     8    1
    8     7     9    1
    9     7    10    1
   10    10    11    1
   11    10    12    1
   12    10    13    1
   13    13    14    1
   14    13    15    1
   15    13    16    1
   16    16    17    1
   17    16    18    1
   18    16    19    1
   19    19    20    1
   20    19    21    1
   21    19    22    1
   22     1    23    1
   23    23    24    1
   24    23    25    1
   25    23    26    1
@<TRIPOS>SUBSTRUCTURE
       1 MOL1            1 RESIDUE      1      MOL     
@<SCITEGIC>MOL_PROPERTY
VM2 Rank
SciTegic.value.IntegerValue
178

@<SCITEGIC>MOL_PROPERTY
Conf_Id
SciTegic.value.IntegerValue
176

@<SCITEGIC>MOL_PROPERTY
Probability
SciTegic.value.DoubleValue
0.00

@<SCITEGIC>MOL_PROPERTY
Sum Probability
SciTegic.value.DoubleValue
99.99

@<SCITEGIC>MOL_PROPERTY
Delta G
SciTegic.value.DoubleValue
5.110

@<SCITEGIC>MOL_PROPERTY
G
SciTegic.value.DoubleValue
80.576

@<SCITEGIC>MOL_PROPERTY
E
SciTegic.value.DoubleValue
47.453

@<SCITEGIC>MOL_PROPERTY
-TS
SciTegic.value.DoubleValue
33.124

@<SCITEGIC>MOL_PROPERTY
U+W
SciTegic.value.DoubleValue
25.991

@<SCITEGIC>MOL_PROPERTY
U
SciTegic.value.DoubleValue
75.257

@<SCITEGIC>MOL_PROPERTY
W
SciTegic.value.DoubleValue
-49.266

@<SCITEGIC>MOL_PROPERTY
W(PB)
SciTegic.value.DoubleValue
-51.475

@<SCITEGIC>MOL_PROPERTY
W(SA)
SciTegic.value.DoubleValue
2.209

@<SCITEGIC>MOL_PROPERTY
Valence
SciTegic.value.DoubleValue
4.258

@<SCITEGIC>MOL_PROPERTY
Coulomb
SciTegic.value.DoubleValue
71.252

@<SCITEGIC>MOL_PROPERTY
VdW
SciTegic.value.DoubleValue
-0.253

@<SCITEGIC>MOL_PROPERTY
VdW6
SciTegic.value.DoubleValue
-9.003

@<SCITEGIC>MOL_PROPERTY
VdW12
SciTegic.value.DoubleValue
8.750

@<SCITEGIC>MOL_PROPERTY
Bond
SciTegic.value.DoubleValue
0.262

@<SCITEGIC>MOL_PROPERTY
Angle
SciTegic.value.DoubleValue
1.778

@<SCITEGIC>MOL_PROPERTY
Pdih
SciTegic.value.DoubleValue
2.218

@<SCITEGIC>MOL_PROPERTY
Idih
SciTegic.value.DoubleValue
0.000

@<SCITEGIC>MOL_PROPERTY
Tether
SciTegic.value.DoubleValue
0.000

@<TRIPOS>MOLECULE
guest-s12_vm2.mol2 : vm2 ligand conformer 179
          26          25           1
SMALL
USER_CHARGES
 
@<TRIPOS>ATOM
       1    N1      20.716706   18.383563   25.161130 N.4        1 MOL1        -0.4857
       2    H1      21.689239   18.084110   25.335024 H          1 MOL1         0.3650
       3    H2      20.302204   17.636864   24.584788 H          1 MOL1         0.3650
       4    C1      20.718679   19.698125   24.395819 C.3        1 MOL1         0.0209
       5    H3      21.414986   19.588581   23.562987 H          1 MOL1         0.0967
       6    H4      21.117738   20.464436   25.065113 H          1 MOL1         0.0967
       7    C2      19.340128   20.150963   23.861525 C.3        1 MOL1        -0.1378
       8    H5      18.649760   20.245013   24.709380 H          1 MOL1         0.0993
       9    H6      19.430060   21.161606   23.442212 H          1 MOL1         0.0993
      10    C3      18.713935   19.203339   22.803269 C.3        1 MOL1        -0.1338
      11    H7      17.623195   19.327770   22.848890 H          1 MOL1         0.0993
      12    H8      18.893326   18.152642   23.062430 H          1 MOL1         0.0993
      13    C4      19.145360   19.486868   21.338670 C.3        1 MOL1        -0.1338
      14    H9      18.561541   18.837451   20.671826 H          1 MOL1         0.0993
      15    H10     18.857294   20.514335   21.076890 H          1 MOL1         0.0993
      16    C5      20.648663   19.296829   21.018110 C.3        1 MOL1        -0.1313
      17    H11     21.254205   20.009262   21.592193 H          1 MOL1         0.0993
      18    H12     20.812673   19.555216   19.962591 H          1 MOL1         0.0993
      19    C6      21.150285   17.853836   21.252766 C.3        1 MOL1        -0.2328
      20    H13     21.090749   17.569442   22.309030 H          1 MOL1         0.1004
      21    H14     22.198556   17.756087   20.942229 H          1 MOL1         0.1004
      22    H15     20.560429   17.133469   20.671311 H          1 MOL1         0.1004
      23    C7      19.974245   18.516477   26.485712 C.3        1 MOL1        -0.0781
      24    H16     20.028567   17.566791   27.022519 H          1 MOL1         0.0978
      25    H17     20.441456   19.303737   27.081274 H          1 MOL1         0.0978
      26    H18     18.929912   18.768565   26.291358 H          1 MOL1         0.0978
@<TRIPOS>BOND
    1     1     2    1
    2     1     3    1
    3     1     4    1
    4     4     5    1
    5     4     6    1
    6     4     7    1
    7     7     8    1
    8     7     9    1
    9     7    10    1
   10    10    11    1
   11    10    12    1
   12    10    13    1
   13    13    14    1
   14    13    15    1
   15    13    16    1
   16    16    17    1
   17    16    18    1
   18    16    19    1
   19    19    20    1
   20    19    21    1
   21    19    22    1
   22     1    23    1
   23    23    24    1
   24    23    25    1
   25    23    26    1
@<TRIPOS>SUBSTRUCTURE
       1 MOL1            1 RESIDUE      1      MOL     
@<SCITEGIC>MOL_PROPERTY
VM2 Rank
SciTegic.value.IntegerValue
179

@<SCITEGIC>MOL_PROPERTY
Conf_Id
SciTegic.value.IntegerValue
255

@<SCITEGIC>MOL_PROPERTY
Probability
SciTegic.value.DoubleValue
0.00

@<SCITEGIC>MOL_PROPERTY
Sum Probability
SciTegic.value.DoubleValue
99.99

@<SCITEGIC>MOL_PROPERTY
Delta G
SciTegic.value.DoubleValue
5.206

@<SCITEGIC>MOL_PROPERTY
G
SciTegic.value.DoubleValue
80.672

@<SCITEGIC>MOL_PROPERTY
E
SciTegic.value.DoubleValue
47.302

@<SCITEGIC>MOL_PROPERTY
-TS
SciTegic.value.DoubleValue
33.370

@<SCITEGIC>MOL_PROPERTY
U+W
SciTegic.value.DoubleValue
25.840

@<SCITEGIC>MOL_PROPERTY
U
SciTegic.value.DoubleValue
75.928

@<SCITEGIC>MOL_PROPERTY
W
SciTegic.value.DoubleValue
-50.087

@<SCITEGIC>MOL_PROPERTY
W(PB)
SciTegic.value.DoubleValue
-52.241

@<SCITEGIC>MOL_PROPERTY
W(SA)
SciTegic.value.DoubleValue
2.154

@<SCITEGIC>MOL_PROPERTY
Valence
SciTegic.value.DoubleValue
5.188

@<SCITEGIC>MOL_PROPERTY
Coulomb
SciTegic.value.DoubleValue
70.757

@<SCITEGIC>MOL_PROPERTY
VdW
SciTegic.value.DoubleValue
-0.018

@<SCITEGIC>MOL_PROPERTY
VdW6
SciTegic.value.DoubleValue
-9.641

@<SCITEGIC>MOL_PROPERTY
VdW12
SciTegic.value.DoubleValue
9.623

@<SCITEGIC>MOL_PROPERTY
Bond
SciTegic.value.DoubleValue
0.309

@<SCITEGIC>MOL_PROPERTY
Angle
SciTegic.value.DoubleValue
1.931

@<SCITEGIC>MOL_PROPERTY
Pdih
SciTegic.value.DoubleValue
2.948

@<SCITEGIC>MOL_PROPERTY
Idih
SciTegic.value.DoubleValue
0.000

@<SCITEGIC>MOL_PROPERTY
Tether
SciTegic.value.DoubleValue
0.000

@<TRIPOS>MOLECULE
guest-s12_vm2.mol2 : vm2 ligand conformer 180
          26          25           1
SMALL
USER_CHARGES
 
@<TRIPOS>ATOM
       1    N1      19.741777   18.333766   24.856142 N.4        1 MOL1        -0.4857
       2    H1      20.409992   17.548003   24.831316 H          1 MOL1         0.3650
       3    H2      19.263200   18.321004   23.943581 H          1 MOL1         0.3650
       4    C1      20.485879   19.643398   25.031563 C.3        1 MOL1         0.0209
       5    H3      21.040679   19.570617   25.970419 H          1 MOL1         0.0967
       6    H4      19.751923   20.446785   25.132455 H          1 MOL1         0.0967
       7    C2      21.467009   19.976311   23.887673 C.3        1 MOL1        -0.1378
       8    H5      22.206895   20.686192   24.280616 H          1 MOL1         0.0993
       9    H6      22.038081   19.082923   23.604879 H          1 MOL1         0.0993
      10    C3      20.802754   20.628093   22.644926 C.3        1 MOL1        -0.1338
      11    H7      21.590076   20.891848   21.925258 H          1 MOL1         0.0993
      12    H8      20.346990   21.580668   22.948830 H          1 MOL1         0.0993
      13    C4      19.729400   19.778152   21.917961 C.3        1 MOL1        -0.1338
      14    H9      18.871917   19.605195   22.579990 H          1 MOL1         0.0993
      15    H10     19.335920   20.368927   21.079029 H          1 MOL1         0.0993
      16    C5      20.268302   18.436757   21.365629 C.3        1 MOL1        -0.1313
      17    H11     20.670311   17.815892   22.175969 H          1 MOL1         0.0993
      18    H12     21.103125   18.631913   20.677918 H          1 MOL1         0.0993
      19    C6      19.170344   17.645170   20.623932 C.3        1 MOL1        -0.2328
      20    H13     18.776020   18.218233   19.774586 H          1 MOL1         0.1004
      21    H14     18.333050   17.405980   21.292285 H          1 MOL1         0.1004
      22    H15     19.570317   16.700032   20.234265 H          1 MOL1         0.1004
      23    C7      18.742535   18.148352   25.989173 C.3        1 MOL1        -0.0781
      24    H16     18.028424   18.974675   25.977175 H          1 MOL1         0.0978
      25    H17     18.214645   17.202202   25.850488 H          1 MOL1         0.0978
      26    H18     19.277839   18.135866   26.941124 H          1 MOL1         0.0978
@<TRIPOS>BOND
    1     1     2    1
    2     1     3    1
    3     1     4    1
    4     4     5    1
    5     4     6    1
    6     4     7    1
    7     7     8    1
    8     7     9    1
    9     7    10    1
   10    10    11    1
   11    10    12    1
   12    10    13    1
   13    13    14    1
   14    13    15    1
   15    13    16    1
   16    16    17    1
   17    16    18    1
   18    16    19    1
   19    19    20    1
   20    19    21    1
   21    19    22    1
   22     1    23    1
   23    23    24    1
   24    23    25    1
   25    23    26    1
@<TRIPOS>SUBSTRUCTURE
       1 MOL1            1 RESIDUE      1      MOL     
@<SCITEGIC>MOL_PROPERTY
VM2 Rank
SciTegic.value.IntegerValue
180

@<SCITEGIC>MOL_PROPERTY
Conf_Id
SciTegic.value.IntegerValue
1489

@<SCITEGIC>MOL_PROPERTY
Probability
SciTegic.value.DoubleValue
0.00

@<SCITEGIC>MOL_PROPERTY
Sum Probability
SciTegic.value.DoubleValue
99.99

@<SCITEGIC>MOL_PROPERTY
Delta G
SciTegic.value.DoubleValue
5.235

@<SCITEGIC>MOL_PROPERTY
G
SciTegic.value.DoubleValue
80.701

@<SCITEGIC>MOL_PROPERTY
E
SciTegic.value.DoubleValue
47.753

@<SCITEGIC>MOL_PROPERTY
-TS
SciTegic.value.DoubleValue
32.948

@<SCITEGIC>MOL_PROPERTY
U+W
SciTegic.value.DoubleValue
26.291

@<SCITEGIC>MOL_PROPERTY
U
SciTegic.value.DoubleValue
74.740

@<SCITEGIC>MOL_PROPERTY
W
SciTegic.value.DoubleValue
-48.449

@<SCITEGIC>MOL_PROPERTY
W(PB)
SciTegic.value.DoubleValue
-50.669

@<SCITEGIC>MOL_PROPERTY
W(SA)
SciTegic.value.DoubleValue
2.221

@<SCITEGIC>MOL_PROPERTY
Valence
SciTegic.value.DoubleValue
3.847

@<SCITEGIC>MOL_PROPERTY
Coulomb
SciTegic.value.DoubleValue
71.181

@<SCITEGIC>MOL_PROPERTY
VdW
SciTegic.value.DoubleValue
-0.288

@<SCITEGIC>MOL_PROPERTY
VdW6
SciTegic.value.DoubleValue
-8.401

@<SCITEGIC>MOL_PROPERTY
VdW12
SciTegic.value.DoubleValue
8.113

@<SCITEGIC>MOL_PROPERTY
Bond
SciTegic.value.DoubleValue
0.222

@<SCITEGIC>MOL_PROPERTY
Angle
SciTegic.value.DoubleValue
1.471

@<SCITEGIC>MOL_PROPERTY
Pdih
SciTegic.value.DoubleValue
2.154

@<SCITEGIC>MOL_PROPERTY
Idih
SciTegic.value.DoubleValue
0.000

@<SCITEGIC>MOL_PROPERTY
Tether
SciTegic.value.DoubleValue
0.000

@<TRIPOS>MOLECULE
guest-s12_vm2.mol2 : vm2 ligand conformer 181
          26          25           1
SMALL
USER_CHARGES
 
@<TRIPOS>ATOM
       1    N1      20.229262   19.418465   25.735330 N.4        1 MOL1        -0.4857
       2    H1      20.883745   19.532185   26.525361 H          1 MOL1         0.3650
       3    H2      19.342828   19.118434   26.168425 H          1 MOL1         0.3650
       4    C1      20.755274   18.335977   24.804994 C.3        1 MOL1         0.0209
       5    H3      21.345071   17.660441   25.429866 H          1 MOL1         0.0967
       6    H4      21.439510   18.789088   24.087503 H          1 MOL1         0.0967
       7    C2      19.678144   17.484804   24.094147 C.3        1 MOL1        -0.1378
       8    H5      20.170131   16.618922   23.631932 H          1 MOL1         0.0993
       9    H6      19.013175   17.068375   24.862243 H          1 MOL1         0.0993
      10    C3      18.811107   18.198315   23.022132 C.3        1 MOL1        -0.1338
      11    H7      18.343445   19.102861   23.428664 H          1 MOL1         0.0993
      12    H8      17.973646   17.525280   22.791610 H          1 MOL1         0.0993
      13    C4      19.532411   18.502077   21.681867 C.3        1 MOL1        -0.1338
      14    H9      20.160213   17.648030   21.393009 H          1 MOL1         0.0993
      15    H10     18.766286   18.590397   20.899044 H          1 MOL1         0.0993
      16    C5      20.370539   19.802091   21.677054 C.3        1 MOL1        -0.1313
      17    H11     21.194140   19.733305   22.395584 H          1 MOL1         0.0993
      18    H12     19.743240   20.649198   21.986396 H          1 MOL1         0.0993
      19    C6      20.958569   20.092604   20.279657 C.3        1 MOL1        -0.2328
      20    H13     21.550693   21.016853   20.292748 H          1 MOL1         0.1004
      21    H14     20.163094   20.213620   19.532824 H          1 MOL1         0.1004
      22    H15     21.615267   19.276777   19.950450 H          1 MOL1         0.1004
      23    C7      20.072695   20.755667   25.021820 C.3        1 MOL1        -0.0781
      24    H16     21.036579   21.052749   24.603069 H          1 MOL1         0.0978
      25    H17     19.336145   20.662307   24.223776 H          1 MOL1         0.0978
      26    H18     19.738265   21.505958   25.741739 H          1 MOL1         0.0978
@<TRIPOS>BOND
    1     1     2    1
    2     1     3    1
    3     1     4    1
    4     4     5    1
    5     4     6    1
    6     4     7    1
    7     7     8    1
    8     7     9    1
    9     7    10    1
   10    10    11    1
   11    10    12    1
   12    10    13    1
   13    13    14    1
   14    13    15    1
   15    13    16    1
   16    16    17    1
   17    16    18    1
   18    16    19    1
   19    19    20    1
   20    19    21    1
   21    19    22    1
   22     1    23    1
   23    23    24    1
   24    23    25    1
   25    23    26    1
@<TRIPOS>SUBSTRUCTURE
       1 MOL1            1 RESIDUE      1      MOL     
@<SCITEGIC>MOL_PROPERTY
VM2 Rank
SciTegic.value.IntegerValue
181

@<SCITEGIC>MOL_PROPERTY
Conf_Id
SciTegic.value.IntegerValue
523

@<SCITEGIC>MOL_PROPERTY
Probability
SciTegic.value.DoubleValue
0.00

@<SCITEGIC>MOL_PROPERTY
Sum Probability
SciTegic.value.DoubleValue
99.99

@<SCITEGIC>MOL_PROPERTY
Delta G
SciTegic.value.DoubleValue
5.237

@<SCITEGIC>MOL_PROPERTY
G
SciTegic.value.DoubleValue
80.703

@<SCITEGIC>MOL_PROPERTY
E
SciTegic.value.DoubleValue
47.925

@<SCITEGIC>MOL_PROPERTY
-TS
SciTegic.value.DoubleValue
32.778

@<SCITEGIC>MOL_PROPERTY
U+W
SciTegic.value.DoubleValue
26.463

@<SCITEGIC>MOL_PROPERTY
U
SciTegic.value.DoubleValue
76.751

@<SCITEGIC>MOL_PROPERTY
W
SciTegic.value.DoubleValue
-50.288

@<SCITEGIC>MOL_PROPERTY
W(PB)
SciTegic.value.DoubleValue
-52.449

@<SCITEGIC>MOL_PROPERTY
W(SA)
SciTegic.value.DoubleValue
2.161

@<SCITEGIC>MOL_PROPERTY
Valence
SciTegic.value.DoubleValue
6.850

@<SCITEGIC>MOL_PROPERTY
Coulomb
SciTegic.value.DoubleValue
70.206

@<SCITEGIC>MOL_PROPERTY
VdW
SciTegic.value.DoubleValue
-0.305

@<SCITEGIC>MOL_PROPERTY
VdW6
SciTegic.value.DoubleValue
-9.094

@<SCITEGIC>MOL_PROPERTY
VdW12
SciTegic.value.DoubleValue
8.789

@<SCITEGIC>MOL_PROPERTY
Bond
SciTegic.value.DoubleValue
0.276

@<SCITEGIC>MOL_PROPERTY
Angle
SciTegic.value.DoubleValue
2.525

@<SCITEGIC>MOL_PROPERTY
Pdih
SciTegic.value.DoubleValue
4.049

@<SCITEGIC>MOL_PROPERTY
Idih
SciTegic.value.DoubleValue
0.000

@<SCITEGIC>MOL_PROPERTY
Tether
SciTegic.value.DoubleValue
0.000

@<TRIPOS>MOLECULE
guest-s12_vm2.mol2 : vm2 ligand conformer 182
          26          25           1
SMALL
USER_CHARGES
 
@<TRIPOS>ATOM
       1    N1      20.396523   18.402342   24.879230 N.4        1 MOL1        -0.4857
       2    H1      20.929844   18.495529   24.002387 H          1 MOL1         0.3650
       3    H2      19.908776   17.495504   24.813645 H          1 MOL1         0.3650
       4    C1      19.387118   19.528319   24.992693 C.3        1 MOL1         0.0209
       5    H3      19.930054   20.465459   25.138603 H          1 MOL1         0.0967
       6    H4      18.795291   19.335493   25.891084 H          1 MOL1         0.0967
       7    C2      18.440560   19.659245   23.780743 C.3        1 MOL1        -0.1378
       8    H5      18.087950   18.669074   23.465361 H          1 MOL1         0.0993
       9    H6      17.544178   20.197701   24.115900 H          1 MOL1         0.0993
      10    C3      19.040538   20.443445   22.582608 C.3        1 MOL1        -0.1338
      11    H7      19.266794   21.467531   22.910534 H          1 MOL1         0.0993
      12    H8      18.267873   20.543631   21.807809 H          1 MOL1         0.0993
      13    C4      20.314723   19.839508   21.938653 C.3        1 MOL1        -0.1338
      14    H9      20.634973   20.505061   21.124941 H          1 MOL1         0.0993
      15    H10     21.141048   19.843033   22.660212 H          1 MOL1         0.0993
      16    C5      20.105182   18.419666   21.359889 C.3        1 MOL1        -0.1313
      17    H11     19.298239   18.442771   20.614052 H          1 MOL1         0.0993
      18    H12     19.784733   17.723134   22.144676 H          1 MOL1         0.0993
      19    C6      21.392368   17.877965   20.702661 C.3        1 MOL1        -0.2328
      20    H13     21.224970   16.873393   20.292883 H          1 MOL1         0.1004
      21    H14     22.212166   17.812366   21.429707 H          1 MOL1         0.1004
      22    H15     21.717985   18.526464   19.878826 H          1 MOL1         0.1004
      23    C7      21.330988   18.419510   26.080522 C.3        1 MOL1        -0.0781
      24    H16     22.051609   17.604119   25.985949 H          1 MOL1         0.0978
      25    H17     21.857697   19.375792   26.112287 H          1 MOL1         0.0978
      26    H18     20.744789   18.289602   26.992887 H          1 MOL1         0.0978
@<TRIPOS>BOND
    1     1     2    1
    2     1     3    1
    3     1     4    1
    4     4     5    1
    5     4     6    1
    6     4     7    1
    7     7     8    1
    8     7     9    1
    9     7    10    1
   10    10    11    1
   11    10    12    1
   12    10    13    1
   13    13    14    1
   14    13    15    1
   15    13    16    1
   16    16    17    1
   17    16    18    1
   18    16    19    1
   19    19    20    1
   20    19    21    1
   21    19    22    1
   22     1    23    1
   23    23    24    1
   24    23    25    1
   25    23    26    1
@<TRIPOS>SUBSTRUCTURE
       1 MOL1            1 RESIDUE      1      MOL     
@<SCITEGIC>MOL_PROPERTY
VM2 Rank
SciTegic.value.IntegerValue
182

@<SCITEGIC>MOL_PROPERTY
Conf_Id
SciTegic.value.IntegerValue
735

@<SCITEGIC>MOL_PROPERTY
Probability
SciTegic.value.DoubleValue
0.00

@<SCITEGIC>MOL_PROPERTY
Sum Probability
SciTegic.value.DoubleValue
99.99

@<SCITEGIC>MOL_PROPERTY
Delta G
SciTegic.value.DoubleValue
5.289

@<SCITEGIC>MOL_PROPERTY
G
SciTegic.value.DoubleValue
80.755

@<SCITEGIC>MOL_PROPERTY
E
SciTegic.value.DoubleValue
47.807

@<SCITEGIC>MOL_PROPERTY
-TS
SciTegic.value.DoubleValue
32.948

@<SCITEGIC>MOL_PROPERTY
U+W
SciTegic.value.DoubleValue
26.345

@<SCITEGIC>MOL_PROPERTY
U
SciTegic.value.DoubleValue
74.740

@<SCITEGIC>MOL_PROPERTY
W
SciTegic.value.DoubleValue
-48.395

@<SCITEGIC>MOL_PROPERTY
W(PB)
SciTegic.value.DoubleValue
-50.620

@<SCITEGIC>MOL_PROPERTY
W(SA)
SciTegic.value.DoubleValue
2.225

@<SCITEGIC>MOL_PROPERTY
Valence
SciTegic.value.DoubleValue
3.847

@<SCITEGIC>MOL_PROPERTY
Coulomb
SciTegic.value.DoubleValue
71.181

@<SCITEGIC>MOL_PROPERTY
VdW
SciTegic.value.DoubleValue
-0.288

@<SCITEGIC>MOL_PROPERTY
VdW6
SciTegic.value.DoubleValue
-8.401

@<SCITEGIC>MOL_PROPERTY
VdW12
SciTegic.value.DoubleValue
8.113

@<SCITEGIC>MOL_PROPERTY
Bond
SciTegic.value.DoubleValue
0.222

@<SCITEGIC>MOL_PROPERTY
Angle
SciTegic.value.DoubleValue
1.471

@<SCITEGIC>MOL_PROPERTY
Pdih
SciTegic.value.DoubleValue
2.154

@<SCITEGIC>MOL_PROPERTY
Idih
SciTegic.value.DoubleValue
0.000

@<SCITEGIC>MOL_PROPERTY
Tether
SciTegic.value.DoubleValue
0.000

@<TRIPOS>MOLECULE
guest-s12_vm2.mol2 : vm2 ligand conformer 183
          26          25           1
SMALL
USER_CHARGES
 
@<TRIPOS>ATOM
       1    N1      19.365296   18.617756   25.869641 N.4        1 MOL1        -0.4857
       2    H1      19.244858   18.014409   26.698545 H          1 MOL1         0.3650
       3    H2      18.491621   18.509133   25.332709 H          1 MOL1         0.3650
       4    C1      20.550975   18.121511   25.057045 C.3        1 MOL1         0.0209
       5    H3      20.626999   17.046326   25.238455 H          1 MOL1         0.0967
       6    H4      21.456604   18.589573   25.450814 H          1 MOL1         0.0967
       7    C2      20.451155   18.341078   23.530853 C.3        1 MOL1        -0.1378
       8    H5      21.305411   17.837493   23.059577 H          1 MOL1         0.0993
       9    H6      19.546187   17.844480   23.159575 H          1 MOL1         0.0993
      10    C3      20.445850   19.829850   23.110045 C.3        1 MOL1        -0.1338
      11    H7      21.244090   20.356090   23.651543 H          1 MOL1         0.0993
      12    H8      19.500868   20.296193   23.417953 H          1 MOL1         0.0993
      13    C4      20.651172   20.065791   21.591098 C.3        1 MOL1        -0.1338
      14    H9      20.691149   21.151965   21.429489 H          1 MOL1         0.0993
      15    H10     21.632778   19.684940   21.277154 H          1 MOL1         0.0993
      16    C5      19.534813   19.486450   20.683786 C.3        1 MOL1        -0.1313
      17    H11     19.409681   20.151854   19.818007 H          1 MOL1         0.0993
      18    H12     18.570984   19.494208   21.211566 H          1 MOL1         0.0993
      19    C6      19.844375   18.067892   20.150539 C.3        1 MOL1        -0.2328
      20    H13     19.041717   17.725330   19.484735 H          1 MOL1         0.1004
      21    H14     19.939084   17.333716   20.957694 H          1 MOL1         0.1004
      22    H15     20.779015   18.060518   19.574875 H          1 MOL1         0.1004
      23    C7      19.564364   20.059672   26.323994 C.3        1 MOL1        -0.0781
      24    H16     19.649471   20.711739   25.453974 H          1 MOL1         0.0978
      25    H17     18.706720   20.364503   26.927798 H          1 MOL1         0.0978
      26    H18     20.475676   20.122967   26.922574 H          1 MOL1         0.0978
@<TRIPOS>BOND
    1     1     2    1
    2     1     3    1
    3     1     4    1
    4     4     5    1
    5     4     6    1
    6     4     7    1
    7     7     8    1
    8     7     9    1
    9     7    10    1
   10    10    11    1
   11    10    12    1
   12    10    13    1
   13    13    14    1
   14    13    15    1
   15    13    16    1
   16    16    17    1
   17    16    18    1
   18    16    19    1
   19    19    20    1
   20    19    21    1
   21    19    22    1
   22     1    23    1
   23    23    24    1
   24    23    25    1
   25    23    26    1
@<TRIPOS>SUBSTRUCTURE
       1 MOL1            1 RESIDUE      1      MOL     
@<SCITEGIC>MOL_PROPERTY
VM2 Rank
SciTegic.value.IntegerValue
183

@<SCITEGIC>MOL_PROPERTY
Conf_Id
SciTegic.value.IntegerValue
448

@<SCITEGIC>MOL_PROPERTY
Probability
SciTegic.value.DoubleValue
0.00

@<SCITEGIC>MOL_PROPERTY
Sum Probability
SciTegic.value.DoubleValue
99.99

@<SCITEGIC>MOL_PROPERTY
Delta G
SciTegic.value.DoubleValue
5.336

@<SCITEGIC>MOL_PROPERTY
G
SciTegic.value.DoubleValue
80.802

@<SCITEGIC>MOL_PROPERTY
E
SciTegic.value.DoubleValue
47.962

@<SCITEGIC>MOL_PROPERTY
-TS
SciTegic.value.DoubleValue
32.840

@<SCITEGIC>MOL_PROPERTY
U+W
SciTegic.value.DoubleValue
26.500

@<SCITEGIC>MOL_PROPERTY
U
SciTegic.value.DoubleValue
76.259

@<SCITEGIC>MOL_PROPERTY
W
SciTegic.value.DoubleValue
-49.758

@<SCITEGIC>MOL_PROPERTY
W(PB)
SciTegic.value.DoubleValue
-51.981

@<SCITEGIC>MOL_PROPERTY
W(SA)
SciTegic.value.DoubleValue
2.222

@<SCITEGIC>MOL_PROPERTY
Valence
SciTegic.value.DoubleValue
6.620

@<SCITEGIC>MOL_PROPERTY
Coulomb
SciTegic.value.DoubleValue
69.255

@<SCITEGIC>MOL_PROPERTY
VdW
SciTegic.value.DoubleValue
0.384

@<SCITEGIC>MOL_PROPERTY
VdW6
SciTegic.value.DoubleValue
-8.486

@<SCITEGIC>MOL_PROPERTY
VdW12
SciTegic.value.DoubleValue
8.870

@<SCITEGIC>MOL_PROPERTY
Bond
SciTegic.value.DoubleValue
0.273

@<SCITEGIC>MOL_PROPERTY
Angle
SciTegic.value.DoubleValue
1.659

@<SCITEGIC>MOL_PROPERTY
Pdih
SciTegic.value.DoubleValue
4.688

@<SCITEGIC>MOL_PROPERTY
Idih
SciTegic.value.DoubleValue
0.000

@<SCITEGIC>MOL_PROPERTY
Tether
SciTegic.value.DoubleValue
0.000

@<TRIPOS>MOLECULE
guest-s12_vm2.mol2 : vm2 ligand conformer 184
          26          25           1
SMALL
USER_CHARGES
 
@<TRIPOS>ATOM
       1    N1      19.721163   19.320301   25.770964 N.4        1 MOL1        -0.4857
       2    H1      20.608345   18.973031   26.165411 H          1 MOL1         0.3650
       3    H2      19.059434   19.319082   26.563175 H          1 MOL1         0.3650
       4    C1      19.216917   18.374761   24.692939 C.3        1 MOL1         0.0209
       5    H3      18.645152   18.955712   23.968482 H          1 MOL1         0.0967
       6    H4      18.522446   17.687888   25.183433 H          1 MOL1         0.0967
       7    C2      20.307908   17.526542   23.997384 C.3        1 MOL1        -0.1378
       8    H5      20.846947   16.969466   24.775047 H          1 MOL1         0.0993
       9    H6      19.823671   16.765799   23.371034 H          1 MOL1         0.0993
      10    C3      21.340100   18.310519   23.143583 C.3        1 MOL1        -0.1338
      11    H7      22.240710   17.687022   23.056931 H          1 MOL1         0.0993
      12    H8      21.669901   19.216251   23.665469 H          1 MOL1         0.0993
      13    C4      20.882645   18.653699   21.701434 C.3        1 MOL1        -0.1338
      14    H9      21.730509   19.116495   21.177643 H          1 MOL1         0.0993
      15    H10     20.661224   17.725043   21.157571 H          1 MOL1         0.0993
      16    C5      19.664857   19.601920   21.611509 C.3        1 MOL1        -0.1313
      17    H11     19.827481   20.482912   22.246768 H          1 MOL1         0.0993
      18    H12     18.765923   19.093018   21.980939 H          1 MOL1         0.0993
      19    C6      19.407352   20.060896   20.160311 C.3        1 MOL1        -0.2328
      20    H13     18.533287   20.723270   20.112609 H          1 MOL1         0.1004
      21    H14     19.215787   19.202681   19.503048 H          1 MOL1         0.1004
      22    H15     20.268692   20.611946   19.760796 H          1 MOL1         0.1004
      23    C7      19.867058   20.741362   25.238877 C.3        1 MOL1        -0.0781
      24    H16     20.593049   20.757133   24.425229 H          1 MOL1         0.0978
      25    H17     18.897438   21.087478   24.874406 H          1 MOL1         0.0978
      26    H18     20.208428   21.391285   26.047665 H          1 MOL1         0.0978
@<TRIPOS>BOND
    1     1     2    1
    2     1     3    1
    3     1     4    1
    4     4     5    1
    5     4     6    1
    6     4     7    1
    7     7     8    1
    8     7     9    1
    9     7    10    1
   10    10    11    1
   11    10    12    1
   12    10    13    1
   13    13    14    1
   14    13    15    1
   15    13    16    1
   16    16    17    1
   17    16    18    1
   18    16    19    1
   19    19    20    1
   20    19    21    1
   21    19    22    1
   22     1    23    1
   23    23    24    1
   24    23    25    1
   25    23    26    1
@<TRIPOS>SUBSTRUCTURE
       1 MOL1            1 RESIDUE      1      MOL     
@<SCITEGIC>MOL_PROPERTY
VM2 Rank
SciTegic.value.IntegerValue
184

@<SCITEGIC>MOL_PROPERTY
Conf_Id
SciTegic.value.IntegerValue
259

@<SCITEGIC>MOL_PROPERTY
Probability
SciTegic.value.DoubleValue
0.00

@<SCITEGIC>MOL_PROPERTY
Sum Probability
SciTegic.value.DoubleValue
99.99

@<SCITEGIC>MOL_PROPERTY
Delta G
SciTegic.value.DoubleValue
5.392

@<SCITEGIC>MOL_PROPERTY
G
SciTegic.value.DoubleValue
80.858

@<SCITEGIC>MOL_PROPERTY
E
SciTegic.value.DoubleValue
47.906

@<SCITEGIC>MOL_PROPERTY
-TS
SciTegic.value.DoubleValue
32.952

@<SCITEGIC>MOL_PROPERTY
U+W
SciTegic.value.DoubleValue
26.444

@<SCITEGIC>MOL_PROPERTY
U
SciTegic.value.DoubleValue
76.622

@<SCITEGIC>MOL_PROPERTY
W
SciTegic.value.DoubleValue
-50.178

@<SCITEGIC>MOL_PROPERTY
W(PB)
SciTegic.value.DoubleValue
-52.359

@<SCITEGIC>MOL_PROPERTY
W(SA)
SciTegic.value.DoubleValue
2.181

@<SCITEGIC>MOL_PROPERTY
Valence
SciTegic.value.DoubleValue
6.683

@<SCITEGIC>MOL_PROPERTY
Coulomb
SciTegic.value.DoubleValue
70.097

@<SCITEGIC>MOL_PROPERTY
VdW
SciTegic.value.DoubleValue
-0.157

@<SCITEGIC>MOL_PROPERTY
VdW6
SciTegic.value.DoubleValue
-8.952

@<SCITEGIC>MOL_PROPERTY
VdW12
SciTegic.value.DoubleValue
8.795

@<SCITEGIC>MOL_PROPERTY
Bond
SciTegic.value.DoubleValue
0.267

@<SCITEGIC>MOL_PROPERTY
Angle
SciTegic.value.DoubleValue
2.043

@<SCITEGIC>MOL_PROPERTY
Pdih
SciTegic.value.DoubleValue
4.372

@<SCITEGIC>MOL_PROPERTY
Idih
SciTegic.value.DoubleValue
0.000

@<SCITEGIC>MOL_PROPERTY
Tether
SciTegic.value.DoubleValue
0.000

@<TRIPOS>MOLECULE
guest-s12_vm2.mol2 : vm2 ligand conformer 185
          26          25           1
SMALL
USER_CHARGES
 
@<TRIPOS>ATOM
       1    N1      19.977555   18.758143   26.108590 N.4        1 MOL1        -0.4857
       2    H1      20.960340   18.447048   26.080071 H          1 MOL1         0.3650
       3    H2      19.586587   18.326800   26.961048 H          1 MOL1         0.3650
       4    C1      19.223686   18.240927   24.893670 C.3        1 MOL1         0.0209
       5    H3      18.358889   18.887768   24.726251 H          1 MOL1         0.0967
       6    H4      18.849846   17.247844   25.155870 H          1 MOL1         0.0967
       7    C2      20.056128   18.110172   23.598577 C.3        1 MOL1        -0.1378
       8    H5      20.898679   17.429146   23.776895 H          1 MOL1         0.0993
       9    H6      19.428214   17.621987   22.844944 H          1 MOL1         0.0993
      10    C3      20.586258   19.459739   23.052335 C.3        1 MOL1        -0.1338
      11    H7      21.335667   19.845719   23.755659 H          1 MOL1         0.0993
      12    H8      19.779285   20.204636   23.020067 H          1 MOL1         0.0993
      13    C4      21.255065   19.338958   21.657985 C.3        1 MOL1        -0.1338
      14    H9      22.102248   20.037922   21.622647 H          1 MOL1         0.0993
      15    H10     21.691605   18.338917   21.529139 H          1 MOL1         0.0993
      16    C5      20.325020   19.673694   20.463591 C.3        1 MOL1        -0.1313
      17    H11     20.915871   19.629001   19.537992 H          1 MOL1         0.0993
      18    H12     19.974420   20.711681   20.549966 H          1 MOL1         0.0993
      19    C6      19.108471   18.732918   20.320323 C.3        1 MOL1        -0.2328
      20    H13     18.407529   18.856882   21.155025 H          1 MOL1         0.1004
      21    H14     19.422831   17.682048   20.279862 H          1 MOL1         0.1004
      22    H15     18.559442   18.954258   19.395957 H          1 MOL1         0.1004
      23    C7      19.875816   20.275448   26.221929 C.3        1 MOL1        -0.0781
      24    H16     18.823518   20.558222   26.296115 H          1 MOL1         0.0978
      25    H17     20.407775   20.602283   27.118173 H          1 MOL1         0.0978
      26    H18     20.320628   20.741313   25.341776 H          1 MOL1         0.0978
@<TRIPOS>BOND
    1     1     2    1
    2     1     3    1
    3     1     4    1
    4     4     5    1
    5     4     6    1
    6     4     7    1
    7     7     8    1
    8     7     9    1
    9     7    10    1
   10    10    11    1
   11    10    12    1
   12    10    13    1
   13    13    14    1
   14    13    15    1
   15    13    16    1
   16    16    17    1
   17    16    18    1
   18    16    19    1
   19    19    20    1
   20    19    21    1
   21    19    22    1
   22     1    23    1
   23    23    24    1
   24    23    25    1
   25    23    26    1
@<TRIPOS>SUBSTRUCTURE
       1 MOL1            1 RESIDUE      1      MOL     
@<SCITEGIC>MOL_PROPERTY
VM2 Rank
SciTegic.value.IntegerValue
185

@<SCITEGIC>MOL_PROPERTY
Conf_Id
SciTegic.value.IntegerValue
510

@<SCITEGIC>MOL_PROPERTY
Probability
SciTegic.value.DoubleValue
0.00

@<SCITEGIC>MOL_PROPERTY
Sum Probability
SciTegic.value.DoubleValue
100.00

@<SCITEGIC>MOL_PROPERTY
Delta G
SciTegic.value.DoubleValue
5.502

@<SCITEGIC>MOL_PROPERTY
G
SciTegic.value.DoubleValue
80.968

@<SCITEGIC>MOL_PROPERTY
E
SciTegic.value.DoubleValue
48.049

@<SCITEGIC>MOL_PROPERTY
-TS
SciTegic.value.DoubleValue
32.919

@<SCITEGIC>MOL_PROPERTY
U+W
SciTegic.value.DoubleValue
26.588

@<SCITEGIC>MOL_PROPERTY
U
SciTegic.value.DoubleValue
76.255

@<SCITEGIC>MOL_PROPERTY
W
SciTegic.value.DoubleValue
-49.667

@<SCITEGIC>MOL_PROPERTY
W(PB)
SciTegic.value.DoubleValue
-51.864

@<SCITEGIC>MOL_PROPERTY
W(SA)
SciTegic.value.DoubleValue
2.196

@<SCITEGIC>MOL_PROPERTY
Valence
SciTegic.value.DoubleValue
6.727

@<SCITEGIC>MOL_PROPERTY
Coulomb
SciTegic.value.DoubleValue
69.126

@<SCITEGIC>MOL_PROPERTY
VdW
SciTegic.value.DoubleValue
0.402

@<SCITEGIC>MOL_PROPERTY
VdW6
SciTegic.value.DoubleValue
-8.493

@<SCITEGIC>MOL_PROPERTY
VdW12
SciTegic.value.DoubleValue
8.895

@<SCITEGIC>MOL_PROPERTY
Bond
SciTegic.value.DoubleValue
0.275

@<SCITEGIC>MOL_PROPERTY
Angle
SciTegic.value.DoubleValue
1.572

@<SCITEGIC>MOL_PROPERTY
Pdih
SciTegic.value.DoubleValue
4.880

@<SCITEGIC>MOL_PROPERTY
Idih
SciTegic.value.DoubleValue
0.000

@<SCITEGIC>MOL_PROPERTY
Tether
SciTegic.value.DoubleValue
0.000

@<TRIPOS>MOLECULE
guest-s12_vm2.mol2 : vm2 ligand conformer 186
          26          25           1
SMALL
USER_CHARGES
 
@<TRIPOS>ATOM
       1    N1      20.177307   18.473227   26.129240 N.4        1 MOL1        -0.4857
       2    H1      20.683284   18.490699   27.028923 H          1 MOL1         0.3650
       3    H2      19.918229   17.484011   25.993251 H          1 MOL1         0.3650
       4    C1      21.115275   18.925563   25.018219 C.3        1 MOL1         0.0209
       5    H3      22.026402   18.331888   25.128591 H          1 MOL1         0.0967
       6    H4      21.378225   19.972388   25.189367 H          1 MOL1         0.0967
       7    C2      20.588373   18.737266   23.578116 C.3        1 MOL1        -0.1378
       8    H5      21.448367   18.493902   22.942209 H          1 MOL1         0.0993
       9    H6      19.909555   17.875380   23.536606 H          1 MOL1         0.0993
      10    C3      19.900664   20.004004   23.012300 C.3        1 MOL1        -0.1338
      11    H7      20.638986   20.814540   22.940502 H          1 MOL1         0.0993
      12    H8      19.136325   20.357449   23.714377 H          1 MOL1         0.0993
      13    C4      19.224297   19.801578   21.631440 C.3        1 MOL1        -0.1338
      14    H9      18.413776   19.064205   21.712245 H          1 MOL1         0.0993
      15    H10     18.735638   20.748237   21.362085 H          1 MOL1         0.0993
      16    C5      20.189261   19.414353   20.480849 C.3        1 MOL1        -0.1313
      17    H11     21.188650   19.833664   20.662491 H          1 MOL1         0.0993
      18    H12     19.830866   19.881318   19.552679 H          1 MOL1         0.0993
      19    C6      20.280889   17.889087   20.240317 C.3        1 MOL1        -0.2328
      20    H13     20.662490   17.354114   21.116683 H          1 MOL1         0.1004
      21    H14     20.954300   17.672991   19.400838 H          1 MOL1         0.1004
      22    H15     19.296386   17.471720   19.992169 H          1 MOL1         0.1004
      23    C7      18.931934   19.344922   26.226519 C.3        1 MOL1        -0.0781
      24    H16     19.231623   20.387277   26.354724 H          1 MOL1         0.0978
      25    H17     18.343960   19.234267   25.313445 H          1 MOL1         0.0978
      26    H18     18.337588   19.023254   27.084626 H          1 MOL1         0.0978
@<TRIPOS>BOND
    1     1     2    1
    2     1     3    1
    3     1     4    1
    4     4     5    1
    5     4     6    1
    6     4     7    1
    7     7     8    1
    8     7     9    1
    9     7    10    1
   10    10    11    1
   11    10    12    1
   12    10    13    1
   13    13    14    1
   14    13    15    1
   15    13    16    1
   16    16    17    1
   17    16    18    1
   18    16    19    1
   19    19    20    1
   20    19    21    1
   21    19    22    1
   22     1    23    1
   23    23    24    1
   24    23    25    1
   25    23    26    1
@<TRIPOS>SUBSTRUCTURE
       1 MOL1            1 RESIDUE      1      MOL     
@<SCITEGIC>MOL_PROPERTY
VM2 Rank
SciTegic.value.IntegerValue
186

@<SCITEGIC>MOL_PROPERTY
Conf_Id
SciTegic.value.IntegerValue
799

@<SCITEGIC>MOL_PROPERTY
Probability
SciTegic.value.DoubleValue
0.00

@<SCITEGIC>MOL_PROPERTY
Sum Probability
SciTegic.value.DoubleValue
100.00

@<SCITEGIC>MOL_PROPERTY
Delta G
SciTegic.value.DoubleValue
5.600

@<SCITEGIC>MOL_PROPERTY
G
SciTegic.value.DoubleValue
81.066

@<SCITEGIC>MOL_PROPERTY
E
SciTegic.value.DoubleValue
48.304

@<SCITEGIC>MOL_PROPERTY
-TS
SciTegic.value.DoubleValue
32.762

@<SCITEGIC>MOL_PROPERTY
U+W
SciTegic.value.DoubleValue
26.842

@<SCITEGIC>MOL_PROPERTY
U
SciTegic.value.DoubleValue
76.536

@<SCITEGIC>MOL_PROPERTY
W
SciTegic.value.DoubleValue
-49.693

@<SCITEGIC>MOL_PROPERTY
W(PB)
SciTegic.value.DoubleValue
-51.898

@<SCITEGIC>MOL_PROPERTY
W(SA)
SciTegic.value.DoubleValue
2.205

@<SCITEGIC>MOL_PROPERTY
Valence
SciTegic.value.DoubleValue
6.954

@<SCITEGIC>MOL_PROPERTY
Coulomb
SciTegic.value.DoubleValue
69.035

@<SCITEGIC>MOL_PROPERTY
VdW
SciTegic.value.DoubleValue
0.548

@<SCITEGIC>MOL_PROPERTY
VdW6
SciTegic.value.DoubleValue
-8.376

@<SCITEGIC>MOL_PROPERTY
VdW12
SciTegic.value.DoubleValue
8.924

@<SCITEGIC>MOL_PROPERTY
Bond
SciTegic.value.DoubleValue
0.281

@<SCITEGIC>MOL_PROPERTY
Angle
SciTegic.value.DoubleValue
1.722

@<SCITEGIC>MOL_PROPERTY
Pdih
SciTegic.value.DoubleValue
4.950

@<SCITEGIC>MOL_PROPERTY
Idih
SciTegic.value.DoubleValue
0.000

@<SCITEGIC>MOL_PROPERTY
Tether
SciTegic.value.DoubleValue
0.000

@<TRIPOS>MOLECULE
guest-s12_vm2.mol2 : vm2 ligand conformer 187
          26          25           1
SMALL
USER_CHARGES
 
@<TRIPOS>ATOM
       1    N1      19.376509   18.983384   25.659647 N.4        1 MOL1        -0.4857
       2    H1      19.150048   18.883651   26.661819 H          1 MOL1         0.3650
       3    H2      18.733115   18.340269   25.175200 H          1 MOL1         0.3650
       4    C1      20.817902   18.562788   25.426670 C.3        1 MOL1         0.0209
       5    H3      21.064926   17.848511   26.216264 H          1 MOL1         0.0967
       6    H4      21.453891   19.440439   25.566319 H          1 MOL1         0.0967
       7    C2      21.126613   17.890771   24.067430 C.3        1 MOL1        -0.1378
       8    H5      22.177226   17.572927   24.098972 H          1 MOL1         0.0993
       9    H6      20.541172   16.967897   23.961698 H          1 MOL1         0.0993
      10    C3      20.936414   18.798001   22.825254 C.3        1 MOL1        -0.1338
      11    H7      21.678853   18.504293   22.071367 H          1 MOL1         0.0993
      12    H8      21.163689   19.840886   23.084502 H          1 MOL1         0.0993
      13    C4      19.525143   18.683562   22.193172 C.3        1 MOL1        -0.1338
      14    H9      19.382531   17.668078   21.798591 H          1 MOL1         0.0993
      15    H10     18.755437   18.818209   22.961736 H          1 MOL1         0.0993
      16    C5      19.272521   19.712847   21.065112 C.3        1 MOL1        -0.1313
      17    H11     19.381760   20.732129   21.461153 H          1 MOL1         0.0993
      18    H12     18.228852   19.623074   20.732629 H          1 MOL1         0.0993
      19    C6      20.202321   19.528047   19.844239 C.3        1 MOL1        -0.2328
      20    H13     20.132690   18.507681   19.445513 H          1 MOL1         0.1004
      21    H14     21.250131   19.726227   20.101890 H          1 MOL1         0.1004
      22    H15     19.923693   20.221868   19.040574 H          1 MOL1         0.1004
      23    C7      19.150577   20.430600   25.235476 C.3        1 MOL1        -0.0781
      24    H16     19.366154   20.537531   24.171270 H          1 MOL1         0.0978
      25    H17     18.110364   20.701415   25.429467 H          1 MOL1         0.0978
      26    H18     19.813103   21.079454   25.812381 H          1 MOL1         0.0978
@<TRIPOS>BOND
    1     1     2    1
    2     1     3    1
    3     1     4    1
    4     4     5    1
    5     4     6    1
    6     4     7    1
    7     7     8    1
    8     7     9    1
    9     7    10    1
   10    10    11    1
   11    10    12    1
   12    10    13    1
   13    13    14    1
   14    13    15    1
   15    13    16    1
   16    16    17    1
   17    16    18    1
   18    16    19    1
   19    19    20    1
   20    19    21    1
   21    19    22    1
   22     1    23    1
   23    23    24    1
   24    23    25    1
   25    23    26    1
@<TRIPOS>SUBSTRUCTURE
       1 MOL1            1 RESIDUE      1      MOL     
@<SCITEGIC>MOL_PROPERTY
VM2 Rank
SciTegic.value.IntegerValue
187

@<SCITEGIC>MOL_PROPERTY
Conf_Id
SciTegic.value.IntegerValue
1573

@<SCITEGIC>MOL_PROPERTY
Probability
SciTegic.value.DoubleValue
0.00

@<SCITEGIC>MOL_PROPERTY
Sum Probability
SciTegic.value.DoubleValue
100.00

@<SCITEGIC>MOL_PROPERTY
Delta G
SciTegic.value.DoubleValue
5.687

@<SCITEGIC>MOL_PROPERTY
G
SciTegic.value.DoubleValue
81.153

@<SCITEGIC>MOL_PROPERTY
E
SciTegic.value.DoubleValue
48.074

@<SCITEGIC>MOL_PROPERTY
-TS
SciTegic.value.DoubleValue
33.078

@<SCITEGIC>MOL_PROPERTY
U+W
SciTegic.value.DoubleValue
26.613

@<SCITEGIC>MOL_PROPERTY
U
SciTegic.value.DoubleValue
76.615

@<SCITEGIC>MOL_PROPERTY
W
SciTegic.value.DoubleValue
-50.003

@<SCITEGIC>MOL_PROPERTY
W(PB)
SciTegic.value.DoubleValue
-52.184

@<SCITEGIC>MOL_PROPERTY
W(SA)
SciTegic.value.DoubleValue
2.182

@<SCITEGIC>MOL_PROPERTY
Valence
SciTegic.value.DoubleValue
6.481

@<SCITEGIC>MOL_PROPERTY
Coulomb
SciTegic.value.DoubleValue
70.025

@<SCITEGIC>MOL_PROPERTY
VdW
SciTegic.value.DoubleValue
0.109

@<SCITEGIC>MOL_PROPERTY
VdW6
SciTegic.value.DoubleValue
-9.001

@<SCITEGIC>MOL_PROPERTY
VdW12
SciTegic.value.DoubleValue
9.110

@<SCITEGIC>MOL_PROPERTY
Bond
SciTegic.value.DoubleValue
0.267

@<SCITEGIC>MOL_PROPERTY
Angle
SciTegic.value.DoubleValue
1.571

@<SCITEGIC>MOL_PROPERTY
Pdih
SciTegic.value.DoubleValue
4.643

@<SCITEGIC>MOL_PROPERTY
Idih
SciTegic.value.DoubleValue
0.000

@<SCITEGIC>MOL_PROPERTY
Tether
SciTegic.value.DoubleValue
0.000

@<TRIPOS>MOLECULE
guest-s12_vm2.mol2 : vm2 ligand conformer 188
          26          25           1
SMALL
USER_CHARGES
 
@<TRIPOS>ATOM
       1    N1      19.766862   18.210034   25.346890 N.4        1 MOL1        -0.4857
       2    H1      19.847071   17.556758   26.142133 H          1 MOL1         0.3650
       3    H2      19.749311   17.611830   24.507727 H          1 MOL1         0.3650
       4    C1      20.981582   19.120900   25.317195 C.3        1 MOL1         0.0209
       5    H3      21.779164   18.595726   25.848901 H          1 MOL1         0.0967
       6    H4      20.744054   20.022464   25.887316 H          1 MOL1         0.0967
       7    C2      21.514795   19.500404   23.915693 C.3        1 MOL1        -0.1378
       8    H5      22.426594   20.091906   24.071981 H          1 MOL1         0.0993
       9    H6      21.840086   18.597639   23.385942 H          1 MOL1         0.0993
      10    C3      20.543663   20.343087   23.045527 C.3        1 MOL1        -0.1338
      11    H7      21.134989   21.000779   22.393537 H          1 MOL1         0.0993
      12    H8      19.968397   21.017121   23.694782 H          1 MOL1         0.0993
      13    C4      19.574175   19.522914   22.153645 C.3        1 MOL1        -0.1338
      14    H9      19.019054   18.792762   22.753003 H          1 MOL1         0.0993
      15    H10     18.823001   20.210023   21.740200 H          1 MOL1         0.0993
      16    C5      20.278488   18.799470   20.980692 C.3        1 MOL1        -0.1313
      17    H11     21.003911   18.068440   21.360170 H          1 MOL1         0.0993
      18    H12     20.845587   19.526907   20.383212 H          1 MOL1         0.0993
      19    C6      19.265315   18.072425   20.070782 C.3        1 MOL1        -0.2328
      20    H13     19.780479   17.565808   19.244364 H          1 MOL1         0.1004
      21    H14     18.546336   18.778985   19.636009 H          1 MOL1         0.1004
      22    H15     18.703181   17.314660   20.631985 H          1 MOL1         0.1004
      23    C7      18.483120   19.020768   25.486575 C.3        1 MOL1        -0.0781
      24    H16     17.629806   18.339186   25.504449 H          1 MOL1         0.0978
      25    H17     18.519395   19.589117   26.418489 H          1 MOL1         0.0978
      26    H18     18.390705   19.705553   24.641961 H          1 MOL1         0.0978
@<TRIPOS>BOND
    1     1     2    1
    2     1     3    1
    3     1     4    1
    4     4     5    1
    5     4     6    1
    6     4     7    1
    7     7     8    1
    8     7     9    1
    9     7    10    1
   10    10    11    1
   11    10    12    1
   12    10    13    1
   13    13    14    1
   14    13    15    1
   15    13    16    1
   16    16    17    1
   17    16    18    1
   18    16    19    1
   19    19    20    1
   20    19    21    1
   21    19    22    1
   22     1    23    1
   23    23    24    1
   24    23    25    1
   25    23    26    1
@<TRIPOS>SUBSTRUCTURE
       1 MOL1            1 RESIDUE      1      MOL     
@<SCITEGIC>MOL_PROPERTY
VM2 Rank
SciTegic.value.IntegerValue
188

@<SCITEGIC>MOL_PROPERTY
Conf_Id
SciTegic.value.IntegerValue
262

@<SCITEGIC>MOL_PROPERTY
Probability
SciTegic.value.DoubleValue
0.00

@<SCITEGIC>MOL_PROPERTY
Sum Probability
SciTegic.value.DoubleValue
100.00

@<SCITEGIC>MOL_PROPERTY
Delta G
SciTegic.value.DoubleValue
5.773

@<SCITEGIC>MOL_PROPERTY
G
SciTegic.value.DoubleValue
81.239

@<SCITEGIC>MOL_PROPERTY
E
SciTegic.value.DoubleValue
48.416

@<SCITEGIC>MOL_PROPERTY
-TS
SciTegic.value.DoubleValue
32.824

@<SCITEGIC>MOL_PROPERTY
U+W
SciTegic.value.DoubleValue
26.954

@<SCITEGIC>MOL_PROPERTY
U
SciTegic.value.DoubleValue
77.040

@<SCITEGIC>MOL_PROPERTY
W
SciTegic.value.DoubleValue
-50.085

@<SCITEGIC>MOL_PROPERTY
W(PB)
SciTegic.value.DoubleValue
-52.291

@<SCITEGIC>MOL_PROPERTY
W(SA)
SciTegic.value.DoubleValue
2.206

@<SCITEGIC>MOL_PROPERTY
Valence
SciTegic.value.DoubleValue
6.724

@<SCITEGIC>MOL_PROPERTY
Coulomb
SciTegic.value.DoubleValue
70.181

@<SCITEGIC>MOL_PROPERTY
VdW
SciTegic.value.DoubleValue
0.134

@<SCITEGIC>MOL_PROPERTY
VdW6
SciTegic.value.DoubleValue
-8.757

@<SCITEGIC>MOL_PROPERTY
VdW12
SciTegic.value.DoubleValue
8.891

@<SCITEGIC>MOL_PROPERTY
Bond
SciTegic.value.DoubleValue
0.279

@<SCITEGIC>MOL_PROPERTY
Angle
SciTegic.value.DoubleValue
1.699

@<SCITEGIC>MOL_PROPERTY
Pdih
SciTegic.value.DoubleValue
4.745

@<SCITEGIC>MOL_PROPERTY
Idih
SciTegic.value.DoubleValue
0.000

@<SCITEGIC>MOL_PROPERTY
Tether
SciTegic.value.DoubleValue
0.000

@<TRIPOS>MOLECULE
guest-s12_vm2.mol2 : vm2 ligand conformer 189
          26          25           1
SMALL
USER_CHARGES
 
@<TRIPOS>ATOM
       1    N1      20.714952   19.242367   24.991917 N.4        1 MOL1        -0.4857
       2    H1      21.236555   19.275308   24.103678 H          1 MOL1         0.3650
       3    H2      21.120807   18.459584   25.528006 H          1 MOL1         0.3650
       4    C1      19.249025   18.977587   24.711861 C.3        1 MOL1         0.0209
       5    H3      18.846606   19.830374   24.161868 H          1 MOL1         0.0967
       6    H4      18.732162   18.925216   25.673455 H          1 MOL1         0.0967
       7    C2      18.990232   17.680048   23.921934 C.3        1 MOL1        -0.1378
       8    H5      19.287370   16.826502   24.545616 H          1 MOL1         0.0993
       9    H6      17.908378   17.575870   23.765697 H          1 MOL1         0.0993
      10    C3      19.716949   17.576460   22.553721 C.3        1 MOL1        -0.1338
      11    H7      19.477181   16.587902   22.138148 H          1 MOL1         0.0993
      12    H8      20.804274   17.566778   22.693150 H          1 MOL1         0.0993
      13    C4      19.296579   18.638566   21.500041 C.3        1 MOL1        -0.1338
      14    H9      19.474628   18.219219   20.500090 H          1 MOL1         0.0993
      15    H10     18.211426   18.799473   21.560214 H          1 MOL1         0.0993
      16    C5      20.024359   20.007039   21.574823 C.3        1 MOL1        -0.1313
      17    H11     19.842038   20.501194   22.535150 H          1 MOL1         0.0993
      18    H12     19.583125   20.669955   20.817353 H          1 MOL1         0.0993
      19    C6      21.545283   19.916245   21.310510 C.3        1 MOL1        -0.2328
      20    H13     21.988549   20.920019   21.277654 H          1 MOL1         0.1004
      21    H14     21.748077   19.431581   20.346611 H          1 MOL1         0.1004
      22    H15     22.067637   19.352453   22.091516 H          1 MOL1         0.1004
      23    C7      20.870621   20.551688   25.752192 C.3        1 MOL1        -0.0781
      24    H16     20.461506   21.366928   25.151470 H          1 MOL1         0.0978
      25    H17     20.330877   20.482859   26.699210 H          1 MOL1         0.0978
      26    H18     21.930871   20.730783   25.944235 H          1 MOL1         0.0978
@<TRIPOS>BOND
    1     1     2    1
    2     1     3    1
    3     1     4    1
    4     4     5    1
    5     4     6    1
    6     4     7    1
    7     7     8    1
    8     7     9    1
    9     7    10    1
   10    10    11    1
   11    10    12    1
   12    10    13    1
   13    13    14    1
   14    13    15    1
   15    13    16    1
   16    16    17    1
   17    16    18    1
   18    16    19    1
   19    19    20    1
   20    19    21    1
   21    19    22    1
   22     1    23    1
   23    23    24    1
   24    23    25    1
   25    23    26    1
@<TRIPOS>SUBSTRUCTURE
       1 MOL1            1 RESIDUE      1      MOL     
@<SCITEGIC>MOL_PROPERTY
VM2 Rank
SciTegic.value.IntegerValue
189

@<SCITEGIC>MOL_PROPERTY
Conf_Id
SciTegic.value.IntegerValue
1337

@<SCITEGIC>MOL_PROPERTY
Probability
SciTegic.value.DoubleValue
0.00

@<SCITEGIC>MOL_PROPERTY
Sum Probability
SciTegic.value.DoubleValue
100.00

@<SCITEGIC>MOL_PROPERTY
Delta G
SciTegic.value.DoubleValue
5.802

@<SCITEGIC>MOL_PROPERTY
G
SciTegic.value.DoubleValue
81.267

@<SCITEGIC>MOL_PROPERTY
E
SciTegic.value.DoubleValue
48.125

@<SCITEGIC>MOL_PROPERTY
-TS
SciTegic.value.DoubleValue
33.142

@<SCITEGIC>MOL_PROPERTY
U+W
SciTegic.value.DoubleValue
26.664

@<SCITEGIC>MOL_PROPERTY
U
SciTegic.value.DoubleValue
75.617

@<SCITEGIC>MOL_PROPERTY
W
SciTegic.value.DoubleValue
-48.954

@<SCITEGIC>MOL_PROPERTY
W(PB)
SciTegic.value.DoubleValue
-51.136

@<SCITEGIC>MOL_PROPERTY
W(SA)
SciTegic.value.DoubleValue
2.182

@<SCITEGIC>MOL_PROPERTY
Valence
SciTegic.value.DoubleValue
5.117

@<SCITEGIC>MOL_PROPERTY
Coulomb
SciTegic.value.DoubleValue
70.837

@<SCITEGIC>MOL_PROPERTY
VdW
SciTegic.value.DoubleValue
-0.337

@<SCITEGIC>MOL_PROPERTY
VdW6
SciTegic.value.DoubleValue
-9.231

@<SCITEGIC>MOL_PROPERTY
VdW12
SciTegic.value.DoubleValue
8.895

@<SCITEGIC>MOL_PROPERTY
Bond
SciTegic.value.DoubleValue
0.293

@<SCITEGIC>MOL_PROPERTY
Angle
SciTegic.value.DoubleValue
2.154

@<SCITEGIC>MOL_PROPERTY
Pdih
SciTegic.value.DoubleValue
2.670

@<SCITEGIC>MOL_PROPERTY
Idih
SciTegic.value.DoubleValue
0.000

@<SCITEGIC>MOL_PROPERTY
Tether
SciTegic.value.DoubleValue
0.000

@<TRIPOS>MOLECULE
guest-s12_vm2.mol2 : vm2 ligand conformer 190
          26          25           1
SMALL
USER_CHARGES
 
@<TRIPOS>ATOM
       1    N1      20.359517   18.270869   25.368123 N.4        1 MOL1        -0.4857
       2    H1      20.556688   17.694511   24.536687 H          1 MOL1         0.3650
       3    H2      20.357892   17.609363   26.160601 H          1 MOL1         0.3650
       4    C1      18.990506   18.916766   25.246744 C.3        1 MOL1         0.0209
       5    H3      18.999793   19.843718   25.825492 H          1 MOL1         0.0967
       6    H4      18.280676   18.237076   25.725094 H          1 MOL1         0.0967
       7    C2      18.491014   19.190178   23.808587 C.3        1 MOL1        -0.1378
       8    H5      18.393547   18.243986   23.263924 H          1 MOL1         0.0993
       9    H6      17.469535   19.583336   23.896252 H          1 MOL1         0.0993
      10    C3      19.329655   20.218464   23.002541 C.3        1 MOL1        -0.1338
      11    H7      19.709465   20.990413   23.685638 H          1 MOL1         0.0993
      12    H8      18.664420   20.747333   22.306067 H          1 MOL1         0.0993
      13    C4      20.505265   19.618256   22.186618 C.3        1 MOL1        -0.1338
      14    H9      21.128716   20.446302   21.821976 H          1 MOL1         0.0993
      15    H10     21.153426   19.011366   22.828560 H          1 MOL1         0.0993
      16    C5      20.046063   18.775681   20.972348 C.3        1 MOL1        -0.1313
      17    H11     19.386501   19.377421   20.331540 H          1 MOL1         0.0993
      18    H12     19.459150   17.910028   21.305254 H          1 MOL1         0.0993
      19    C6      21.246702   18.275784   20.140710 C.3        1 MOL1        -0.2328
      20    H13     21.910104   17.643599   20.745182 H          1 MOL1         0.1004
      21    H14     21.836148   19.116577   19.752369 H          1 MOL1         0.1004
      22    H15     20.904031   17.681335   19.283839 H          1 MOL1         0.1004
      23    C7      21.439278   19.324002   25.591329 C.3        1 MOL1        -0.0781
      24    H16     21.449935   20.019141   24.750192 H          1 MOL1         0.0978
      25    H17     21.223353   19.866722   26.514167 H          1 MOL1         0.0978
      26    H18     22.409632   18.829431   25.673973 H          1 MOL1         0.0978
@<TRIPOS>BOND
    1     1     2    1
    2     1     3    1
    3     1     4    1
    4     4     5    1
    5     4     6    1
    6     4     7    1
    7     7     8    1
    8     7     9    1
    9     7    10    1
   10    10    11    1
   11    10    12    1
   12    10    13    1
   13    13    14    1
   14    13    15    1
   15    13    16    1
   16    16    17    1
   17    16    18    1
   18    16    19    1
   19    19    20    1
   20    19    21    1
   21    19    22    1
   22     1    23    1
   23    23    24    1
   24    23    25    1
   25    23    26    1
@<TRIPOS>SUBSTRUCTURE
       1 MOL1            1 RESIDUE      1      MOL     
@<SCITEGIC>MOL_PROPERTY
VM2 Rank
SciTegic.value.IntegerValue
190

@<SCITEGIC>MOL_PROPERTY
Conf_Id
SciTegic.value.IntegerValue
553

@<SCITEGIC>MOL_PROPERTY
Probability
SciTegic.value.DoubleValue
0.00

@<SCITEGIC>MOL_PROPERTY
Sum Probability
SciTegic.value.DoubleValue
100.00

@<SCITEGIC>MOL_PROPERTY
Delta G
SciTegic.value.DoubleValue
5.810

@<SCITEGIC>MOL_PROPERTY
G
SciTegic.value.DoubleValue
81.276

@<SCITEGIC>MOL_PROPERTY
E
SciTegic.value.DoubleValue
48.451

@<SCITEGIC>MOL_PROPERTY
-TS
SciTegic.value.DoubleValue
32.824

@<SCITEGIC>MOL_PROPERTY
U+W
SciTegic.value.DoubleValue
26.990

@<SCITEGIC>MOL_PROPERTY
U
SciTegic.value.DoubleValue
77.039

@<SCITEGIC>MOL_PROPERTY
W
SciTegic.value.DoubleValue
-50.050

@<SCITEGIC>MOL_PROPERTY
W(PB)
SciTegic.value.DoubleValue
-52.249

@<SCITEGIC>MOL_PROPERTY
W(SA)
SciTegic.value.DoubleValue
2.200

@<SCITEGIC>MOL_PROPERTY
Valence
SciTegic.value.DoubleValue
6.724

@<SCITEGIC>MOL_PROPERTY
Coulomb
SciTegic.value.DoubleValue
70.181

@<SCITEGIC>MOL_PROPERTY
VdW
SciTegic.value.DoubleValue
0.134

@<SCITEGIC>MOL_PROPERTY
VdW6
SciTegic.value.DoubleValue
-8.757

@<SCITEGIC>MOL_PROPERTY
VdW12
SciTegic.value.DoubleValue
8.891

@<SCITEGIC>MOL_PROPERTY
Bond
SciTegic.value.DoubleValue
0.279

@<SCITEGIC>MOL_PROPERTY
Angle
SciTegic.value.DoubleValue
1.699

@<SCITEGIC>MOL_PROPERTY
Pdih
SciTegic.value.DoubleValue
4.746

@<SCITEGIC>MOL_PROPERTY
Idih
SciTegic.value.DoubleValue
0.000

@<SCITEGIC>MOL_PROPERTY
Tether
SciTegic.value.DoubleValue
0.000

@<TRIPOS>MOLECULE
guest-s12_vm2.mol2 : vm2 ligand conformer 191
          26          25           1
SMALL
USER_CHARGES
 
@<TRIPOS>ATOM
       1    N1      19.249086   19.093701   24.939811 N.4        1 MOL1        -0.4857
       2    H1      18.971871   18.241584   25.451580 H          1 MOL1         0.3650
       3    H2      18.795104   19.027776   24.016948 H          1 MOL1         0.3650
       4    C1      20.754293   19.130297   24.765180 C.3        1 MOL1         0.0209
       5    H3      21.202398   19.175771   25.761013 H          1 MOL1         0.0967
       6    H4      21.015084   20.050376   24.238754 H          1 MOL1         0.0967
       7    C2      21.322820   17.916698   24.004572 C.3        1 MOL1        -0.1378
       8    H5      22.411815   18.032773   23.925273 H          1 MOL1         0.0993
       9    H6      21.159993   17.016491   24.611965 H          1 MOL1         0.0993
      10    C3      20.729354   17.679123   22.589576 C.3        1 MOL1        -0.1338
      11    H7      19.659039   17.450496   22.652542 H          1 MOL1         0.0993
      12    H8      21.191093   16.761737   22.198891 H          1 MOL1         0.0993
      13    C4      21.000863   18.811392   21.560366 C.3        1 MOL1        -0.1338
      14    H9      22.024791   19.186192   21.695148 H          1 MOL1         0.0993
      15    H10     20.980901   18.371949   20.553416 H          1 MOL1         0.0993
      16    C5      20.010055   20.005578   21.574326 C.3        1 MOL1        -0.1313
      17    H11     20.361222   20.748790   20.844792 H          1 MOL1         0.0993
      18    H12     20.022058   20.519526   22.541473 H          1 MOL1         0.0993
      19    C6      18.560477   19.613521   21.205094 C.3        1 MOL1        -0.2328
      20    H13     17.928350   20.508235   21.134188 H          1 MOL1         0.1004
      21    H14     18.108520   18.950976   21.951720 H          1 MOL1         0.1004
      22    H15     18.526814   19.104811   20.232876 H          1 MOL1         0.1004
      23    C7      18.781053   20.339689   25.678074 C.3        1 MOL1        -0.0781
      24    H16     19.059442   21.224723   25.101814 H          1 MOL1         0.0978
      25    H17     17.695623   20.301113   25.794009 H          1 MOL1         0.0978
      26    H18     19.255865   20.373692   26.661080 H          1 MOL1         0.0978
@<TRIPOS>BOND
    1     1     2    1
    2     1     3    1
    3     1     4    1
    4     4     5    1
    5     4     6    1
    6     4     7    1
    7     7     8    1
    8     7     9    1
    9     7    10    1
   10    10    11    1
   11    10    12    1
   12    10    13    1
   13    13    14    1
   14    13    15    1
   15    13    16    1
   16    16    17    1
   17    16    18    1
   18    16    19    1
   19    19    20    1
   20    19    21    1
   21    19    22    1
   22     1    23    1
   23    23    24    1
   24    23    25    1
   25    23    26    1
@<TRIPOS>SUBSTRUCTURE
       1 MOL1            1 RESIDUE      1      MOL     
@<SCITEGIC>MOL_PROPERTY
VM2 Rank
SciTegic.value.IntegerValue
191

@<SCITEGIC>MOL_PROPERTY
Conf_Id
SciTegic.value.IntegerValue
1604

@<SCITEGIC>MOL_PROPERTY
Probability
SciTegic.value.DoubleValue
0.00

@<SCITEGIC>MOL_PROPERTY
Sum Probability
SciTegic.value.DoubleValue
100.00

@<SCITEGIC>MOL_PROPERTY
Delta G
SciTegic.value.DoubleValue
5.838

@<SCITEGIC>MOL_PROPERTY
G
SciTegic.value.DoubleValue
81.304

@<SCITEGIC>MOL_PROPERTY
E
SciTegic.value.DoubleValue
48.161

@<SCITEGIC>MOL_PROPERTY
-TS
SciTegic.value.DoubleValue
33.143

@<SCITEGIC>MOL_PROPERTY
U+W
SciTegic.value.DoubleValue
26.699

@<SCITEGIC>MOL_PROPERTY
U
SciTegic.value.DoubleValue
75.617

@<SCITEGIC>MOL_PROPERTY
W
SciTegic.value.DoubleValue
-48.918

@<SCITEGIC>MOL_PROPERTY
W(PB)
SciTegic.value.DoubleValue
-51.100

@<SCITEGIC>MOL_PROPERTY
W(SA)
SciTegic.value.DoubleValue
2.181

@<SCITEGIC>MOL_PROPERTY
Valence
SciTegic.value.DoubleValue
5.117

@<SCITEGIC>MOL_PROPERTY
Coulomb
SciTegic.value.DoubleValue
70.837

@<SCITEGIC>MOL_PROPERTY
VdW
SciTegic.value.DoubleValue
-0.337

@<SCITEGIC>MOL_PROPERTY
VdW6
SciTegic.value.DoubleValue
-9.232

@<SCITEGIC>MOL_PROPERTY
VdW12
SciTegic.value.DoubleValue
8.895

@<SCITEGIC>MOL_PROPERTY
Bond
SciTegic.value.DoubleValue
0.293

@<SCITEGIC>MOL_PROPERTY
Angle
SciTegic.value.DoubleValue
2.155

@<SCITEGIC>MOL_PROPERTY
Pdih
SciTegic.value.DoubleValue
2.669

@<SCITEGIC>MOL_PROPERTY
Idih
SciTegic.value.DoubleValue
0.000

@<SCITEGIC>MOL_PROPERTY
Tether
SciTegic.value.DoubleValue
0.000

@<TRIPOS>MOLECULE
guest-s12_vm2.mol2 : vm2 ligand conformer 192
          26          25           1
SMALL
USER_CHARGES
 
@<TRIPOS>ATOM
       1    N1      19.540643   18.676122   25.652458 N.4        1 MOL1        -0.4857
       2    H1      20.262781   18.362930   26.319692 H          1 MOL1         0.3650
       3    H2      19.039218   17.820315   25.368836 H          1 MOL1         0.3650
       4    C1      20.189190   19.327616   24.447975 C.3        1 MOL1         0.0209
       5    H3      20.726453   20.213597   24.795478 H          1 MOL1         0.0967
       6    H4      19.391945   19.653825   23.778130 H          1 MOL1         0.0967
       7    C2      21.161510   18.394024   23.700302 C.3        1 MOL1        -0.1378
       8    H5      21.953427   18.096932   24.400687 H          1 MOL1         0.0993
       9    H6      20.653826   17.468824   23.397909 H          1 MOL1         0.0993
      10    C3      21.818796   19.066595   22.469722 C.3        1 MOL1        -0.1338
      11    H7      22.788088   18.578859   22.296261 H          1 MOL1         0.0993
      12    H8      22.054122   20.115537   22.697570 H          1 MOL1         0.0993
      13    C4      21.012558   18.978870   21.145247 C.3        1 MOL1        -0.1338
      14    H9      21.635191   19.420959   20.355037 H          1 MOL1         0.0993
      15    H10     20.878479   17.927385   20.856004 H          1 MOL1         0.0993
      16    C5      19.646988   19.712021   21.139766 C.3        1 MOL1        -0.1313
      17    H11     19.488493   20.148155   20.143424 H          1 MOL1         0.0993
      18    H12     19.663855   20.561460   21.835871 H          1 MOL1         0.0993
      19    C6      18.451747   18.777664   21.442079 C.3        1 MOL1        -0.2328
      20    H13     18.550285   18.278826   22.412109 H          1 MOL1         0.1004
      21    H14     18.362622   17.998539   20.673918 H          1 MOL1         0.1004
      22    H15     17.511959   19.344759   21.450530 H          1 MOL1         0.1004
      23    C7      18.586568   19.657088   26.319452 C.3        1 MOL1        -0.0781
      24    H16     17.813362   19.948225   25.605068 H          1 MOL1         0.0978
      25    H17     18.126395   19.176365   27.185632 H          1 MOL1         0.0978
      26    H18     19.144999   20.539115   26.640578 H          1 MOL1         0.0978
@<TRIPOS>BOND
    1     1     2    1
    2     1     3    1
    3     1     4    1
    4     4     5    1
    5     4     6    1
    6     4     7    1
    7     7     8    1
    8     7     9    1
    9     7    10    1
   10    10    11    1
   11    10    12    1
   12    10    13    1
   13    13    14    1
   14    13    15    1
   15    13    16    1
   16    16    17    1
   17    16    18    1
   18    16    19    1
   19    19    20    1
   20    19    21    1
   21    19    22    1
   22     1    23    1
   23    23    24    1
   24    23    25    1
   25    23    26    1
@<TRIPOS>SUBSTRUCTURE
       1 MOL1            1 RESIDUE      1      MOL     
@<SCITEGIC>MOL_PROPERTY
VM2 Rank
SciTegic.value.IntegerValue
192

@<SCITEGIC>MOL_PROPERTY
Conf_Id
SciTegic.value.IntegerValue
1504

@<SCITEGIC>MOL_PROPERTY
Probability
SciTegic.value.DoubleValue
0.00

@<SCITEGIC>MOL_PROPERTY
Sum Probability
SciTegic.value.DoubleValue
100.00

@<SCITEGIC>MOL_PROPERTY
Delta G
SciTegic.value.DoubleValue
5.923

@<SCITEGIC>MOL_PROPERTY
G
SciTegic.value.DoubleValue
81.389

@<SCITEGIC>MOL_PROPERTY
E
SciTegic.value.DoubleValue
48.350

@<SCITEGIC>MOL_PROPERTY
-TS
SciTegic.value.DoubleValue
33.039

@<SCITEGIC>MOL_PROPERTY
U+W
SciTegic.value.DoubleValue
26.889

@<SCITEGIC>MOL_PROPERTY
U
SciTegic.value.DoubleValue
76.568

@<SCITEGIC>MOL_PROPERTY
W
SciTegic.value.DoubleValue
-49.679

@<SCITEGIC>MOL_PROPERTY
W(PB)
SciTegic.value.DoubleValue
-51.903

@<SCITEGIC>MOL_PROPERTY
W(SA)
SciTegic.value.DoubleValue
2.224

@<SCITEGIC>MOL_PROPERTY
Valence
SciTegic.value.DoubleValue
6.604

@<SCITEGIC>MOL_PROPERTY
Coulomb
SciTegic.value.DoubleValue
70.083

@<SCITEGIC>MOL_PROPERTY
VdW
SciTegic.value.DoubleValue
-0.119

@<SCITEGIC>MOL_PROPERTY
VdW6
SciTegic.value.DoubleValue
-8.384

@<SCITEGIC>MOL_PROPERTY
VdW12
SciTegic.value.DoubleValue
8.265

@<SCITEGIC>MOL_PROPERTY
Bond
SciTegic.value.DoubleValue
0.244

@<SCITEGIC>MOL_PROPERTY
Angle
SciTegic.value.DoubleValue
1.737

@<SCITEGIC>MOL_PROPERTY
Pdih
SciTegic.value.DoubleValue
4.622

@<SCITEGIC>MOL_PROPERTY
Idih
SciTegic.value.DoubleValue
0.000

@<SCITEGIC>MOL_PROPERTY
Tether
SciTegic.value.DoubleValue
0.000

@<TRIPOS>MOLECULE
guest-s12_vm2.mol2 : vm2 ligand conformer 193
          26          25           1
SMALL
USER_CHARGES
 
@<TRIPOS>ATOM
       1    N1      20.464308   18.770398   25.685203 N.4        1 MOL1        -0.4857
       2    H1      21.146634   18.035350   25.443521 H          1 MOL1         0.3650
       3    H2      19.775279   18.313257   26.302486 H          1 MOL1         0.3650
       4    C1      19.783632   19.286241   24.433635 C.3        1 MOL1         0.0209
       5    H3      20.543573   19.771388   23.818958 H          1 MOL1         0.0967
       6    H4      19.055662   20.043083   24.736322 H          1 MOL1         0.0967
       7    C2      19.074490   18.181038   23.626382 C.3        1 MOL1        -0.1378
       8    H5      19.778320   17.379497   23.366898 H          1 MOL1         0.0993
       9    H6      18.311740   17.725261   24.271685 H          1 MOL1         0.0993
      10    C3      18.382851   18.715952   22.348022 C.3        1 MOL1        -0.1338
      11    H7      17.925391   19.694200   22.551325 H          1 MOL1         0.0993
      12    H8      17.546457   18.043954   22.110611 H          1 MOL1         0.0993
      13    C4      19.280931   18.802130   21.083913 C.3        1 MOL1        -0.1338
      14    H9      19.644309   17.801408   20.812310 H          1 MOL1         0.0993
      15    H10     18.638798   19.115128   20.248902 H          1 MOL1         0.0993
      16    C5      20.467465   19.795740   21.168793 C.3        1 MOL1        -0.1313
      17    H11     20.230857   20.619344   21.855879 H          1 MOL1         0.0993
      18    H12     20.604084   20.261941   20.182880 H          1 MOL1         0.0993
      19    C6      21.802476   19.119637   21.560769 C.3        1 MOL1        -0.2328
      20    H13     21.738945   18.604352   22.525109 H          1 MOL1         0.1004
      21    H14     22.605580   19.864606   21.630868 H          1 MOL1         0.1004
      22    H15     22.100512   18.379954   20.806386 H          1 MOL1         0.1004
      23    C7      21.151848   19.918864   26.410284 C.3        1 MOL1        -0.0781
      24    H16     20.405906   20.667792   26.685266 H          1 MOL1         0.0978
      25    H17     21.637799   19.534675   27.309934 H          1 MOL1         0.0978
      26    H18     21.898461   20.365083   25.749671 H          1 MOL1         0.0978
@<TRIPOS>BOND
    1     1     2    1
    2     1     3    1
    3     1     4    1
    4     4     5    1
    5     4     6    1
    6     4     7    1
    7     7     8    1
    8     7     9    1
    9     7    10    1
   10    10    11    1
   11    10    12    1
   12    10    13    1
   13    13    14    1
   14    13    15    1
   15    13    16    1
   16    16    17    1
   17    16    18    1
   18    16    19    1
   19    19    20    1
   20    19    21    1
   21    19    22    1
   22     1    23    1
   23    23    24    1
   24    23    25    1
   25    23    26    1
@<TRIPOS>SUBSTRUCTURE
       1 MOL1            1 RESIDUE      1      MOL     
@<SCITEGIC>MOL_PROPERTY
VM2 Rank
SciTegic.value.IntegerValue
193

@<SCITEGIC>MOL_PROPERTY
Conf_Id
SciTegic.value.IntegerValue
1245

@<SCITEGIC>MOL_PROPERTY
Probability
SciTegic.value.DoubleValue
0.00

@<SCITEGIC>MOL_PROPERTY
Sum Probability
SciTegic.value.DoubleValue
100.00

@<SCITEGIC>MOL_PROPERTY
Delta G
SciTegic.value.DoubleValue
5.957

@<SCITEGIC>MOL_PROPERTY
G
SciTegic.value.DoubleValue
81.423

@<SCITEGIC>MOL_PROPERTY
E
SciTegic.value.DoubleValue
48.384

@<SCITEGIC>MOL_PROPERTY
-TS
SciTegic.value.DoubleValue
33.039

@<SCITEGIC>MOL_PROPERTY
U+W
SciTegic.value.DoubleValue
26.923

@<SCITEGIC>MOL_PROPERTY
U
SciTegic.value.DoubleValue
76.568

@<SCITEGIC>MOL_PROPERTY
W
SciTegic.value.DoubleValue
-49.645

@<SCITEGIC>MOL_PROPERTY
W(PB)
SciTegic.value.DoubleValue
-51.858

@<SCITEGIC>MOL_PROPERTY
W(SA)
SciTegic.value.DoubleValue
2.213

@<SCITEGIC>MOL_PROPERTY
Valence
SciTegic.value.DoubleValue
6.604

@<SCITEGIC>MOL_PROPERTY
Coulomb
SciTegic.value.DoubleValue
70.083

@<SCITEGIC>MOL_PROPERTY
VdW
SciTegic.value.DoubleValue
-0.119

@<SCITEGIC>MOL_PROPERTY
VdW6
SciTegic.value.DoubleValue
-8.383

@<SCITEGIC>MOL_PROPERTY
VdW12
SciTegic.value.DoubleValue
8.264

@<SCITEGIC>MOL_PROPERTY
Bond
SciTegic.value.DoubleValue
0.244

@<SCITEGIC>MOL_PROPERTY
Angle
SciTegic.value.DoubleValue
1.738

@<SCITEGIC>MOL_PROPERTY
Pdih
SciTegic.value.DoubleValue
4.622

@<SCITEGIC>MOL_PROPERTY
Idih
SciTegic.value.DoubleValue
0.000

@<SCITEGIC>MOL_PROPERTY
Tether
SciTegic.value.DoubleValue
0.000

@<TRIPOS>MOLECULE
guest-s12_vm2.mol2 : vm2 ligand conformer 194
          26          25           1
SMALL
USER_CHARGES
 
@<TRIPOS>ATOM
       1    N1      20.115499   19.644140   25.802807 N.4        1 MOL1        -0.4857
       2    H1      19.495270   19.123089   26.441623 H          1 MOL1         0.3650
       3    H2      20.147837   20.602152   26.186044 H          1 MOL1         0.3650
       4    C1      19.522099   19.674650   24.404451 C.3        1 MOL1         0.0209
       5    H3      20.226455   20.196426   23.754413 H          1 MOL1         0.0967
       6    H4      18.606489   20.269359   24.454518 H          1 MOL1         0.0967
       7    C2      19.182172   18.284707   23.823590 C.3        1 MOL1        -0.1378
       8    H5      20.078117   17.654137   23.763342 H          1 MOL1         0.0993
       9    H6      18.499379   17.783729   24.522448 H          1 MOL1         0.0993
      10    C3      18.496141   18.361677   22.437014 C.3        1 MOL1        -0.1338
      11    H7      17.795578   19.207918   22.412650 H          1 MOL1         0.0993
      12    H8      17.875470   17.462855   22.317197 H          1 MOL1         0.0993
      13    C4      19.453098   18.429934   21.215844 C.3        1 MOL1        -0.1338
      14    H9      20.071008   17.522457   21.171917 H          1 MOL1         0.0993
      15    H10     18.829919   18.401928   20.311194 H          1 MOL1         0.0993
      16    C5      20.350658   19.690880   21.136166 C.3        1 MOL1        -0.1313
      17    H11     19.865252   20.540394   21.635199 H          1 MOL1         0.0993
      18    H12     20.450578   19.983662   20.081505 H          1 MOL1         0.0993
      19    C6      21.772395   19.461953   21.700567 C.3        1 MOL1        -0.2328
      20    H13     21.754105   19.129343   22.743672 H          1 MOL1         0.1004
      21    H14     22.360074   20.387811   21.653051 H          1 MOL1         0.1004
      22    H15     22.304892   18.699765   21.116999 H          1 MOL1         0.1004
      23    C7      21.515938   19.042059   25.796560 C.3        1 MOL1        -0.0781
      24    H16     21.918341   19.064166   26.811778 H          1 MOL1         0.0978
      25    H17     21.464561   18.009750   25.444846 H          1 MOL1         0.0978
      26    H18     22.155769   19.628907   25.134035 H          1 MOL1         0.0978
@<TRIPOS>BOND
    1     1     2    1
    2     1     3    1
    3     1     4    1
    4     4     5    1
    5     4     6    1
    6     4     7    1
    7     7     8    1
    8     7     9    1
    9     7    10    1
   10    10    11    1
   11    10    12    1
   12    10    13    1
   13    13    14    1
   14    13    15    1
   15    13    16    1
   16    16    17    1
   17    16    18    1
   18    16    19    1
   19    19    20    1
   20    19    21    1
   21    19    22    1
   22     1    23    1
   23    23    24    1
   24    23    25    1
   25    23    26    1
@<TRIPOS>SUBSTRUCTURE
       1 MOL1            1 RESIDUE      1      MOL     
@<SCITEGIC>MOL_PROPERTY
VM2 Rank
SciTegic.value.IntegerValue
194

@<SCITEGIC>MOL_PROPERTY
Conf_Id
SciTegic.value.IntegerValue
478

@<SCITEGIC>MOL_PROPERTY
Probability
SciTegic.value.DoubleValue
0.00

@<SCITEGIC>MOL_PROPERTY
Sum Probability
SciTegic.value.DoubleValue
100.00

@<SCITEGIC>MOL_PROPERTY
Delta G
SciTegic.value.DoubleValue
5.959

@<SCITEGIC>MOL_PROPERTY
G
SciTegic.value.DoubleValue
81.425

@<SCITEGIC>MOL_PROPERTY
E
SciTegic.value.DoubleValue
48.034

@<SCITEGIC>MOL_PROPERTY
-TS
SciTegic.value.DoubleValue
33.391

@<SCITEGIC>MOL_PROPERTY
U+W
SciTegic.value.DoubleValue
26.572

@<SCITEGIC>MOL_PROPERTY
U
SciTegic.value.DoubleValue
76.813

@<SCITEGIC>MOL_PROPERTY
W
SciTegic.value.DoubleValue
-50.240

@<SCITEGIC>MOL_PROPERTY
W(PB)
SciTegic.value.DoubleValue
-52.373

@<SCITEGIC>MOL_PROPERTY
W(SA)
SciTegic.value.DoubleValue
2.133

@<SCITEGIC>MOL_PROPERTY
Valence
SciTegic.value.DoubleValue
6.903

@<SCITEGIC>MOL_PROPERTY
Coulomb
SciTegic.value.DoubleValue
69.931

@<SCITEGIC>MOL_PROPERTY
VdW
SciTegic.value.DoubleValue
-0.021

@<SCITEGIC>MOL_PROPERTY
VdW6
SciTegic.value.DoubleValue
-9.386

@<SCITEGIC>MOL_PROPERTY
VdW12
SciTegic.value.DoubleValue
9.365

@<SCITEGIC>MOL_PROPERTY
Bond
SciTegic.value.DoubleValue
0.281

@<SCITEGIC>MOL_PROPERTY
Angle
SciTegic.value.DoubleValue
1.859

@<SCITEGIC>MOL_PROPERTY
Pdih
SciTegic.value.DoubleValue
4.763

@<SCITEGIC>MOL_PROPERTY
Idih
SciTegic.value.DoubleValue
0.000

@<SCITEGIC>MOL_PROPERTY
Tether
SciTegic.value.DoubleValue
0.000

@<TRIPOS>MOLECULE
guest-s12_vm2.mol2 : vm2 ligand conformer 195
          26          25           1
SMALL
USER_CHARGES
 
@<TRIPOS>ATOM
       1    N1      19.957991   19.681746   25.492322 N.4        1 MOL1        -0.4857
       2    H1      19.653352   19.982256   26.431812 H          1 MOL1         0.3650
       3    H2      19.623833   20.416972   24.852078 H          1 MOL1         0.3650
       4    C1      19.302267   18.356453   25.144795 C.3        1 MOL1         0.0209
       5    H3      18.236536   18.452036   25.367480 H          1 MOL1         0.0967
       6    H4      19.716778   17.601745   25.817878 H          1 MOL1         0.0967
       7    C2      19.465723   17.883643   23.681530 C.3        1 MOL1        -0.1378
       8    H5      20.527233   17.756764   23.441426 H          1 MOL1         0.0993
       9    H6      19.022712   16.881369   23.613502 H          1 MOL1         0.0993
      10    C3      18.757281   18.796094   22.644042 C.3        1 MOL1        -0.1338
      11    H7      17.825962   19.175318   23.087104 H          1 MOL1         0.0993
      12    H8      18.441467   18.189152   21.784352 H          1 MOL1         0.0993
      13    C4      19.605155   19.992112   22.130502 C.3        1 MOL1        -0.1338
      14    H9      18.926075   20.833555   21.934926 H          1 MOL1         0.0993
      15    H10     20.300405   20.344187   22.900664 H          1 MOL1         0.0993
      16    C5      20.385458   19.708713   20.821526 C.3        1 MOL1        -0.1313
      17    H11     20.875663   20.637807   20.498532 H          1 MOL1         0.0993
      18    H12     19.680486   19.443510   20.021230 H          1 MOL1         0.0993
      19    C6      21.456317   18.603008   20.950020 C.3        1 MOL1        -0.2328
      20    H13     22.154645   18.821018   21.768243 H          1 MOL1         0.1004
      21    H14     22.039756   18.524707   20.023563 H          1 MOL1         0.1004
      22    H15     20.998576   17.623010   21.133026 H          1 MOL1         0.1004
      23    C7      21.477808   19.568231   25.452262 C.3        1 MOL1        -0.0781
      24    H16     21.793400   19.297030   24.442827 H          1 MOL1         0.0978
      25    H17     21.915642   20.529868   25.728997 H          1 MOL1         0.0978
      26    H18     21.798312   18.800106   26.159399 H          1 MOL1         0.0978
@<TRIPOS>BOND
    1     1     2    1
    2     1     3    1
    3     1     4    1
    4     4     5    1
    5     4     6    1
    6     4     7    1
    7     7     8    1
    8     7     9    1
    9     7    10    1
   10    10    11    1
   11    10    12    1
   12    10    13    1
   13    13    14    1
   14    13    15    1
   15    13    16    1
   16    16    17    1
   17    16    18    1
   18    16    19    1
   19    19    20    1
   20    19    21    1
   21    19    22    1
   22     1    23    1
   23    23    24    1
   24    23    25    1
   25    23    26    1
@<TRIPOS>SUBSTRUCTURE
       1 MOL1            1 RESIDUE      1      MOL     
@<SCITEGIC>MOL_PROPERTY
VM2 Rank
SciTegic.value.IntegerValue
195

@<SCITEGIC>MOL_PROPERTY
Conf_Id
SciTegic.value.IntegerValue
801

@<SCITEGIC>MOL_PROPERTY
Probability
SciTegic.value.DoubleValue
0.00

@<SCITEGIC>MOL_PROPERTY
Sum Probability
SciTegic.value.DoubleValue
100.00

@<SCITEGIC>MOL_PROPERTY
Delta G
SciTegic.value.DoubleValue
6.460

@<SCITEGIC>MOL_PROPERTY
G
SciTegic.value.DoubleValue
81.926

@<SCITEGIC>MOL_PROPERTY
E
SciTegic.value.DoubleValue
48.691

@<SCITEGIC>MOL_PROPERTY
-TS
SciTegic.value.DoubleValue
33.234

@<SCITEGIC>MOL_PROPERTY
U+W
SciTegic.value.DoubleValue
27.229

@<SCITEGIC>MOL_PROPERTY
U
SciTegic.value.DoubleValue
77.340

@<SCITEGIC>MOL_PROPERTY
W
SciTegic.value.DoubleValue
-50.110

@<SCITEGIC>MOL_PROPERTY
W(PB)
SciTegic.value.DoubleValue
-52.264

@<SCITEGIC>MOL_PROPERTY
W(SA)
SciTegic.value.DoubleValue
2.154

@<SCITEGIC>MOL_PROPERTY
Valence
SciTegic.value.DoubleValue
6.847

@<SCITEGIC>MOL_PROPERTY
Coulomb
SciTegic.value.DoubleValue
70.349

@<SCITEGIC>MOL_PROPERTY
VdW
SciTegic.value.DoubleValue
0.144

@<SCITEGIC>MOL_PROPERTY
VdW6
SciTegic.value.DoubleValue
-9.591

@<SCITEGIC>MOL_PROPERTY
VdW12
SciTegic.value.DoubleValue
9.735

@<SCITEGIC>MOL_PROPERTY
Bond
SciTegic.value.DoubleValue
0.315

@<SCITEGIC>MOL_PROPERTY
Angle
SciTegic.value.DoubleValue
1.724

@<SCITEGIC>MOL_PROPERTY
Pdih
SciTegic.value.DoubleValue
4.808

@<SCITEGIC>MOL_PROPERTY
Idih
SciTegic.value.DoubleValue
0.000

@<SCITEGIC>MOL_PROPERTY
Tether
SciTegic.value.DoubleValue
0.000

@<TRIPOS>MOLECULE
guest-s12_vm2.mol2 : vm2 ligand conformer 196
          26          25           1
SMALL
USER_CHARGES
 
@<TRIPOS>ATOM
       1    N1      19.760232   19.360700   25.470925 N.4        1 MOL1        -0.4857
       2    H1      19.440197   18.635330   26.131245 H          1 MOL1         0.3650
       3    H2      18.904880   19.727266   25.027613 H          1 MOL1         0.3650
       4    C1      20.669714   18.748230   24.423619 C.3        1 MOL1         0.0209
       5    H3      20.995092   19.547602   23.756234 H          1 MOL1         0.0967
       6    H4      21.550311   18.360343   24.941920 H          1 MOL1         0.0967
       7    C2      20.014913   17.610134   23.612030 C.3        1 MOL1        -0.1378
       8    H5      20.771962   17.125284   22.981956 H          1 MOL1         0.0993
       9    H6      19.675677   16.840305   24.317804 H          1 MOL1         0.0993
      10    C3      18.813476   18.052869   22.735378 C.3        1 MOL1        -0.1338
      11    H7      18.176868   18.760623   23.281660 H          1 MOL1         0.0993
      12    H8      18.182919   17.169513   22.563482 H          1 MOL1         0.0993
      13    C4      19.175605   18.636315   21.342676 C.3        1 MOL1        -0.1338
      14    H9      19.703283   17.880403   20.744819 H          1 MOL1         0.0993
      15    H10     18.231917   18.820720   20.810703 H          1 MOL1         0.0993
      16    C5      19.979283   19.961264   21.358427 C.3        1 MOL1        -0.1313
      17    H11     19.777847   20.523199   22.280304 H          1 MOL1         0.0993
      18    H12     19.620514   20.598941   20.538264 H          1 MOL1         0.0993
      19    C6      21.499288   19.750362   21.164355 C.3        1 MOL1        -0.2328
      20    H13     21.708465   19.310797   20.180425 H          1 MOL1         0.1004
      21    H14     21.924731   19.084227   21.922941 H          1 MOL1         0.1004
      22    H15     22.032055   20.708431   21.220386 H          1 MOL1         0.1004
      23    C7      20.495488   20.470126   26.209590 C.3        1 MOL1        -0.0781
      24    H16     20.795828   21.239646   25.495059 H          1 MOL1         0.0978
      25    H17     19.830205   20.902862   26.960081 H          1 MOL1         0.0978
      26    H18     21.379141   20.052439   26.697041 H          1 MOL1         0.0978
@<TRIPOS>BOND
    1     1     2    1
    2     1     3    1
    3     1     4    1
    4     4     5    1
    5     4     6    1
    6     4     7    1
    7     7     8    1
    8     7     9    1
    9     7    10    1
   10    10    11    1
   11    10    12    1
   12    10    13    1
   13    13    14    1
   14    13    15    1
   15    13    16    1
   16    16    17    1
   17    16    18    1
   18    16    19    1
   19    19    20    1
   20    19    21    1
   21    19    22    1
   22     1    23    1
   23    23    24    1
   24    23    25    1
   25    23    26    1
@<TRIPOS>SUBSTRUCTURE
       1 MOL1            1 RESIDUE      1      MOL     
@<SCITEGIC>MOL_PROPERTY
VM2 Rank
SciTegic.value.IntegerValue
196

@<SCITEGIC>MOL_PROPERTY
Conf_Id
SciTegic.value.IntegerValue
576

@<SCITEGIC>MOL_PROPERTY
Probability
SciTegic.value.DoubleValue
0.00

@<SCITEGIC>MOL_PROPERTY
Sum Probability
SciTegic.value.DoubleValue
100.00

@<SCITEGIC>MOL_PROPERTY
Delta G
SciTegic.value.DoubleValue
6.483

@<SCITEGIC>MOL_PROPERTY
G
SciTegic.value.DoubleValue
81.949

@<SCITEGIC>MOL_PROPERTY
E
SciTegic.value.DoubleValue
48.856

@<SCITEGIC>MOL_PROPERTY
-TS
SciTegic.value.DoubleValue
33.093

@<SCITEGIC>MOL_PROPERTY
U+W
SciTegic.value.DoubleValue
27.394

@<SCITEGIC>MOL_PROPERTY
U
SciTegic.value.DoubleValue
77.061

@<SCITEGIC>MOL_PROPERTY
W
SciTegic.value.DoubleValue
-49.668

@<SCITEGIC>MOL_PROPERTY
W(PB)
SciTegic.value.DoubleValue
-51.856

@<SCITEGIC>MOL_PROPERTY
W(SA)
SciTegic.value.DoubleValue
2.188

@<SCITEGIC>MOL_PROPERTY
Valence
SciTegic.value.DoubleValue
6.801

@<SCITEGIC>MOL_PROPERTY
Coulomb
SciTegic.value.DoubleValue
70.342

@<SCITEGIC>MOL_PROPERTY
VdW
SciTegic.value.DoubleValue
-0.081

@<SCITEGIC>MOL_PROPERTY
VdW6
SciTegic.value.DoubleValue
-8.958

@<SCITEGIC>MOL_PROPERTY
VdW12
SciTegic.value.DoubleValue
8.877

@<SCITEGIC>MOL_PROPERTY
Bond
SciTegic.value.DoubleValue
0.269

@<SCITEGIC>MOL_PROPERTY
Angle
SciTegic.value.DoubleValue
1.891

@<SCITEGIC>MOL_PROPERTY
Pdih
SciTegic.value.DoubleValue
4.641

@<SCITEGIC>MOL_PROPERTY
Idih
SciTegic.value.DoubleValue
0.000

@<SCITEGIC>MOL_PROPERTY
Tether
SciTegic.value.DoubleValue
0.000

@<TRIPOS>MOLECULE
guest-s12_vm2.mol2 : vm2 ligand conformer 197
          26          25           1
SMALL
USER_CHARGES
 
@<TRIPOS>ATOM
       1    N1      20.627141   18.995883   25.291669 N.4        1 MOL1        -0.4857
       2    H1      20.965372   19.834515   24.796316 H          1 MOL1         0.3650
       3    H2      21.195879   18.211476   24.937483 H          1 MOL1         0.3650
       4    C1      19.164526   18.765519   24.969993 C.3        1 MOL1         0.0209
       5    H3      18.599254   19.615364   25.360634 H          1 MOL1         0.0967
       6    H4      18.847372   17.870716   25.511575 H          1 MOL1         0.0967
       7    C2      18.853271   18.587527   23.468431 C.3        1 MOL1        -0.1378
       8    H5      19.391462   17.716002   23.077220 H          1 MOL1         0.0993
       9    H6      17.785329   18.347529   23.381395 H          1 MOL1         0.0993
      10    C3      19.140186   19.853361   22.616710 C.3        1 MOL1        -0.1338
      11    H7      18.920844   20.744154   23.221732 H          1 MOL1         0.0993
      12    H8      18.432230   19.893707   21.777395 H          1 MOL1         0.0993
      13    C4      20.587445   19.951563   22.060789 C.3        1 MOL1        -0.1338
      14    H9      20.877645   21.011300   22.044108 H          1 MOL1         0.0993
      15    H10     21.302192   19.456490   22.728524 H          1 MOL1         0.0993
      16    C5      20.756554   19.397533   20.623090 C.3        1 MOL1        -0.1313
      17    H11     21.786386   19.591083   20.291653 H          1 MOL1         0.0993
      18    H12     20.106173   19.954308   19.934003 H          1 MOL1         0.0993
      19    C6      20.469291   17.885416   20.491638 C.3        1 MOL1        -0.2328
      20    H13     20.696023   17.538807   19.475113 H          1 MOL1         0.1004
      21    H14     19.413571   17.660404   20.687528 H          1 MOL1         0.1004
      22    H15     21.085265   17.303258   21.189031 H          1 MOL1         0.1004
      23    C7      20.809586   19.153198   26.794680 C.3        1 MOL1        -0.0781
      24    H16     20.470047   18.243433   27.294637 H          1 MOL1         0.0978
      25    H17     21.866881   19.320754   27.011821 H          1 MOL1         0.0978
      26    H18     20.222152   20.006632   27.140361 H          1 MOL1         0.0978
@<TRIPOS>BOND
    1     1     2    1
    2     1     3    1
    3     1     4    1
    4     4     5    1
    5     4     6    1
    6     4     7    1
    7     7     8    1
    8     7     9    1
    9     7    10    1
   10    10    11    1
   11    10    12    1
   12    10    13    1
   13    13    14    1
   14    13    15    1
   15    13    16    1
   16    16    17    1
   17    16    18    1
   18    16    19    1
   19    19    20    1
   20    19    21    1
   21    19    22    1
   22     1    23    1
   23    23    24    1
   24    23    25    1
   25    23    26    1
@<TRIPOS>SUBSTRUCTURE
       1 MOL1            1 RESIDUE      1      MOL     
@<SCITEGIC>MOL_PROPERTY
VM2 Rank
SciTegic.value.IntegerValue
197

@<SCITEGIC>MOL_PROPERTY
Conf_Id
SciTegic.value.IntegerValue
539

@<SCITEGIC>MOL_PROPERTY
Probability
SciTegic.value.DoubleValue
0.00

@<SCITEGIC>MOL_PROPERTY
Sum Probability
SciTegic.value.DoubleValue
100.00

@<SCITEGIC>MOL_PROPERTY
Delta G
SciTegic.value.DoubleValue
6.507

@<SCITEGIC>MOL_PROPERTY
G
SciTegic.value.DoubleValue
81.973

@<SCITEGIC>MOL_PROPERTY
E
SciTegic.value.DoubleValue
49.206

@<SCITEGIC>MOL_PROPERTY
-TS
SciTegic.value.DoubleValue
32.767

@<SCITEGIC>MOL_PROPERTY
U+W
SciTegic.value.DoubleValue
27.744

@<SCITEGIC>MOL_PROPERTY
U
SciTegic.value.DoubleValue
77.266

@<SCITEGIC>MOL_PROPERTY
W
SciTegic.value.DoubleValue
-49.522

@<SCITEGIC>MOL_PROPERTY
W(PB)
SciTegic.value.DoubleValue
-51.736

@<SCITEGIC>MOL_PROPERTY
W(SA)
SciTegic.value.DoubleValue
2.214

@<SCITEGIC>MOL_PROPERTY
Valence
SciTegic.value.DoubleValue
6.548

@<SCITEGIC>MOL_PROPERTY
Coulomb
SciTegic.value.DoubleValue
70.467

@<SCITEGIC>MOL_PROPERTY
VdW
SciTegic.value.DoubleValue
0.250

@<SCITEGIC>MOL_PROPERTY
VdW6
SciTegic.value.DoubleValue
-8.286

@<SCITEGIC>MOL_PROPERTY
VdW12
SciTegic.value.DoubleValue
8.537

@<SCITEGIC>MOL_PROPERTY
Bond
SciTegic.value.DoubleValue
0.272

@<SCITEGIC>MOL_PROPERTY
Angle
SciTegic.value.DoubleValue
1.407

@<SCITEGIC>MOL_PROPERTY
Pdih
SciTegic.value.DoubleValue
4.870

@<SCITEGIC>MOL_PROPERTY
Idih
SciTegic.value.DoubleValue
0.000

@<SCITEGIC>MOL_PROPERTY
Tether
SciTegic.value.DoubleValue
0.000

@<TRIPOS>MOLECULE
guest-s12_vm2.mol2 : vm2 ligand conformer 198
          26          25           1
SMALL
USER_CHARGES
 
@<TRIPOS>ATOM
       1    N1      20.822609   19.570698   25.284324 N.4        1 MOL1        -0.4857
       2    H1      20.539803   20.459975   24.846903 H          1 MOL1         0.3650
       3    H2      21.827592   19.681005   25.492927 H          1 MOL1         0.3650
       4    C1      20.628864   18.421116   24.307463 C.3        1 MOL1         0.0209
       5    H3      20.917113   17.501492   24.822856 H          1 MOL1         0.0967
       6    H4      21.329456   18.575059   23.485284 H          1 MOL1         0.0967
       7    C2      19.197330   18.265201   23.742310 C.3        1 MOL1        -0.1378
       8    H5      19.147662   17.364968   23.116207 H          1 MOL1         0.0993
       9    H6      18.512084   18.078896   24.579076 H          1 MOL1         0.0993
      10    C3      18.683684   19.487922   22.936781 C.3        1 MOL1        -0.1338
      11    H7      18.967938   20.423963   23.434257 H          1 MOL1         0.0993
      12    H8      17.585441   19.468060   22.965460 H          1 MOL1         0.0993
      13    C4      19.102689   19.534512   21.442327 C.3        1 MOL1        -0.1338
      14    H9      18.698825   18.660718   20.912560 H          1 MOL1         0.0993
      15    H10     18.604925   20.403821   20.990600 H          1 MOL1         0.0993
      16    C5      20.623533   19.664539   21.174878 C.3        1 MOL1        -0.1313
      17    H11     21.122496   20.158276   22.019340 H          1 MOL1         0.0993
      18    H12     20.772575   20.329510   20.312544 H          1 MOL1         0.0993
      19    C6      21.299515   18.311241   20.852128 C.3        1 MOL1        -0.2328
      20    H13     20.891348   17.883450   19.927199 H          1 MOL1         0.1004
      21    H14     21.154177   17.575437   21.650695 H          1 MOL1         0.1004
      22    H15     22.379639   18.443848   20.708522 H          1 MOL1         0.1004
      23    C7      20.049776   19.334770   26.576789 C.3        1 MOL1        -0.0781
      24    H16     20.379591   18.395292   27.025516 H          1 MOL1         0.0978
      25    H17     20.244101   20.160377   27.264991 H          1 MOL1         0.0978
      26    H18     18.981806   19.285493   26.355298 H          1 MOL1         0.0978
@<TRIPOS>BOND
    1     1     2    1
    2     1     3    1
    3     1     4    1
    4     4     5    1
    5     4     6    1
    6     4     7    1
    7     7     8    1
    8     7     9    1
    9     7    10    1
   10    10    11    1
   11    10    12    1
   12    10    13    1
   13    13    14    1
   14    13    15    1
   15    13    16    1
   16    16    17    1
   17    16    18    1
   18    16    19    1
   19    19    20    1
   20    19    21    1
   21    19    22    1
   22     1    23    1
   23    23    24    1
   24    23    25    1
   25    23    26    1
@<TRIPOS>SUBSTRUCTURE
       1 MOL1            1 RESIDUE      1      MOL     
@<SCITEGIC>MOL_PROPERTY
VM2 Rank
SciTegic.value.IntegerValue
198

@<SCITEGIC>MOL_PROPERTY
Conf_Id
SciTegic.value.IntegerValue
191

@<SCITEGIC>MOL_PROPERTY
Probability
SciTegic.value.DoubleValue
0.00

@<SCITEGIC>MOL_PROPERTY
Sum Probability
SciTegic.value.DoubleValue
100.00

@<SCITEGIC>MOL_PROPERTY
Delta G
SciTegic.value.DoubleValue
6.813

@<SCITEGIC>MOL_PROPERTY
G
SciTegic.value.DoubleValue
82.279

@<SCITEGIC>MOL_PROPERTY
E
SciTegic.value.DoubleValue
48.970

@<SCITEGIC>MOL_PROPERTY
-TS
SciTegic.value.DoubleValue
33.309

@<SCITEGIC>MOL_PROPERTY
U+W
SciTegic.value.DoubleValue
27.508

@<SCITEGIC>MOL_PROPERTY
U
SciTegic.value.DoubleValue
77.692

@<SCITEGIC>MOL_PROPERTY
W
SciTegic.value.DoubleValue
-50.184

@<SCITEGIC>MOL_PROPERTY
W(PB)
SciTegic.value.DoubleValue
-52.352

@<SCITEGIC>MOL_PROPERTY
W(SA)
SciTegic.value.DoubleValue
2.168

@<SCITEGIC>MOL_PROPERTY
Valence
SciTegic.value.DoubleValue
7.097

@<SCITEGIC>MOL_PROPERTY
Coulomb
SciTegic.value.DoubleValue
70.376

@<SCITEGIC>MOL_PROPERTY
VdW
SciTegic.value.DoubleValue
0.219

@<SCITEGIC>MOL_PROPERTY
VdW6
SciTegic.value.DoubleValue
-9.694

@<SCITEGIC>MOL_PROPERTY
VdW12
SciTegic.value.DoubleValue
9.913

@<SCITEGIC>MOL_PROPERTY
Bond
SciTegic.value.DoubleValue
0.317

@<SCITEGIC>MOL_PROPERTY
Angle
SciTegic.value.DoubleValue
2.059

@<SCITEGIC>MOL_PROPERTY
Pdih
SciTegic.value.DoubleValue
4.721

@<SCITEGIC>MOL_PROPERTY
Idih
SciTegic.value.DoubleValue
0.000

@<SCITEGIC>MOL_PROPERTY
Tether
SciTegic.value.DoubleValue
0.000

@<TRIPOS>MOLECULE
guest-s12_vm2.mol2 : vm2 ligand conformer 199
          26          25           1
SMALL
USER_CHARGES
 
@<TRIPOS>ATOM
       1    N1      20.747981   18.877607   24.849770 N.4        1 MOL1        -0.4857
       2    H1      21.079576   18.795708   23.876798 H          1 MOL1         0.3650
       3    H2      20.841504   17.934819   25.258912 H          1 MOL1         0.3650
       4    C1      19.293736   19.308055   24.859169 C.3        1 MOL1         0.0209
       5    H3      19.229581   20.326470   24.468226 H          1 MOL1         0.0967
       6    H4      18.973778   19.324319   25.904126 H          1 MOL1         0.0967
       7    C2      18.356889   18.380422   24.058196 C.3        1 MOL1        -0.1378
       8    H5      18.602869   17.331471   24.270441 H          1 MOL1         0.0993
       9    H6      17.336596   18.529648   24.435761 H          1 MOL1         0.0993
      10    C3      18.335885   18.625418   22.525159 C.3        1 MOL1        -0.1338
      11    H7      17.956887   19.634573   22.311814 H          1 MOL1         0.0993
      12    H8      17.596263   17.937235   22.092774 H          1 MOL1         0.0993
      13    C4      19.686090   18.397865   21.797869 C.3        1 MOL1        -0.1338
      14    H9      20.278986   17.639988   22.326768 H          1 MOL1         0.0993
      15    H10     19.480251   17.970840   20.806338 H          1 MOL1         0.0993
      16    C5      20.496708   19.701454   21.593256 C.3        1 MOL1        -0.1313
      17    H11     20.597496   20.258237   22.532479 H          1 MOL1         0.0993
      18    H12     19.949308   20.363702   20.907705 H          1 MOL1         0.0993
      19    C6      21.898125   19.417392   21.012467 C.3        1 MOL1        -0.2328
      20    H13     22.450215   20.353539   20.857549 H          1 MOL1         0.1004
      21    H14     21.826758   18.905733   20.043718 H          1 MOL1         0.1004
      22    H15     22.489621   18.786383   21.688283 H          1 MOL1         0.1004
      23    C7      21.592586   19.881787   25.621116 C.3        1 MOL1        -0.0781
      24    H16     22.636454   19.560640   25.603673 H          1 MOL1         0.0978
      25    H17     21.500698   20.863999   25.152407 H          1 MOL1         0.0978
      26    H18     21.238877   19.929928   26.653340 H          1 MOL1         0.0978
@<TRIPOS>BOND
    1     1     2    1
    2     1     3    1
    3     1     4    1
    4     4     5    1
    5     4     6    1
    6     4     7    1
    7     7     8    1
    8     7     9    1
    9     7    10    1
   10    10    11    1
   11    10    12    1
   12    10    13    1
   13    13    14    1
   14    13    15    1
   15    13    16    1
   16    16    17    1
   17    16    18    1
   18    16    19    1
   19    19    20    1
   20    19    21    1
   21    19    22    1
   22     1    23    1
   23    23    24    1
   24    23    25    1
   25    23    26    1
@<TRIPOS>SUBSTRUCTURE
       1 MOL1            1 RESIDUE      1      MOL     
@<SCITEGIC>MOL_PROPERTY
VM2 Rank
SciTegic.value.IntegerValue
199

@<SCITEGIC>MOL_PROPERTY
Conf_Id
SciTegic.value.IntegerValue
107

@<SCITEGIC>MOL_PROPERTY
Probability
SciTegic.value.DoubleValue
0.00

@<SCITEGIC>MOL_PROPERTY
Sum Probability
SciTegic.value.DoubleValue
100.00

@<SCITEGIC>MOL_PROPERTY
Delta G
SciTegic.value.DoubleValue
7.040

@<SCITEGIC>MOL_PROPERTY
G
SciTegic.value.DoubleValue
82.506

@<SCITEGIC>MOL_PROPERTY
E
SciTegic.value.DoubleValue
49.521

@<SCITEGIC>MOL_PROPERTY
-TS
SciTegic.value.DoubleValue
32.986

@<SCITEGIC>MOL_PROPERTY
U+W
SciTegic.value.DoubleValue
28.059

@<SCITEGIC>MOL_PROPERTY
U
SciTegic.value.DoubleValue
76.549

@<SCITEGIC>MOL_PROPERTY
W
SciTegic.value.DoubleValue
-48.490

@<SCITEGIC>MOL_PROPERTY
W(PB)
SciTegic.value.DoubleValue
-50.670

@<SCITEGIC>MOL_PROPERTY
W(SA)
SciTegic.value.DoubleValue
2.180

@<SCITEGIC>MOL_PROPERTY
Valence
SciTegic.value.DoubleValue
5.809

@<SCITEGIC>MOL_PROPERTY
Coulomb
SciTegic.value.DoubleValue
71.051

@<SCITEGIC>MOL_PROPERTY
VdW
SciTegic.value.DoubleValue
-0.311

@<SCITEGIC>MOL_PROPERTY
VdW6
SciTegic.value.DoubleValue
-8.913

@<SCITEGIC>MOL_PROPERTY
VdW12
SciTegic.value.DoubleValue
8.601

@<SCITEGIC>MOL_PROPERTY
Bond
SciTegic.value.DoubleValue
0.232

@<SCITEGIC>MOL_PROPERTY
Angle
SciTegic.value.DoubleValue
1.493

@<SCITEGIC>MOL_PROPERTY
Pdih
SciTegic.value.DoubleValue
4.084

@<SCITEGIC>MOL_PROPERTY
Idih
SciTegic.value.DoubleValue
0.000

@<SCITEGIC>MOL_PROPERTY
Tether
SciTegic.value.DoubleValue
0.000

@<TRIPOS>MOLECULE
guest-s12_vm2.mol2 : vm2 ligand conformer 200
          26          25           1
SMALL
USER_CHARGES
 
@<TRIPOS>ATOM
       1    N1      19.300369   18.729936   24.798324 N.4        1 MOL1        -0.4857
       2    H1      19.370465   17.784728   25.206562 H          1 MOL1         0.3650
       3    H2      19.061155   18.589876   23.805098 H          1 MOL1         0.3650
       4    C1      20.633600   19.444753   24.906628 C.3        1 MOL1         0.0209
       5    H3      20.869630   19.517673   25.971309 H          1 MOL1         0.0967
       6    H4      20.518287   20.457973   24.513935 H          1 MOL1         0.0967
       7    C2      21.792085   18.730920   24.179926 C.3        1 MOL1        -0.1378
       8    H5      22.732285   19.080225   24.626951 H          1 MOL1         0.0993
       9    H6      21.748519   17.652432   24.381961 H          1 MOL1         0.0993
      10    C3      21.870578   18.985990   22.650399 C.3        1 MOL1        -0.1338
      11    H7      22.762204   18.464165   22.275839 H          1 MOL1         0.0993
      12    H8      22.052296   20.052327   22.456865 H          1 MOL1         0.0993
      13    C4      20.648319   18.496014   21.831985 C.3        1 MOL1        -0.1338
      14    H9      21.004967   18.126349   20.860387 H          1 MOL1         0.0993
      15    H10     20.184885   17.630393   22.323480 H          1 MOL1         0.0993
      16    C5      19.607837   19.610779   21.561771 C.3        1 MOL1        -0.1313
      17    H11     20.057032   20.374577   20.911358 H          1 MOL1         0.0993
      18    H12     19.331457   20.129230   22.487583 H          1 MOL1         0.0993
      19    C6      18.336568   19.054064   20.886551 C.3        1 MOL1        -0.2328
      20    H13     17.619297   19.860738   20.686616 H          1 MOL1         0.1004
      21    H14     17.838652   18.312067   21.523959 H          1 MOL1         0.1004
      22    H15     18.577171   18.574065   19.928912 H          1 MOL1         0.1004
      23    C7      18.218644   19.537544   25.501416 C.3        1 MOL1        -0.0781
      24    H16     18.143182   20.521465   25.033359 H          1 MOL1         0.0978
      25    H17     17.264839   19.012608   25.413091 H          1 MOL1         0.0978
      26    H18     18.482128   19.648573   26.555533 H          1 MOL1         0.0978
@<TRIPOS>BOND
    1     1     2    1
    2     1     3    1
    3     1     4    1
    4     4     5    1
    5     4     6    1
    6     4     7    1
    7     7     8    1
    8     7     9    1
    9     7    10    1
   10    10    11    1
   11    10    12    1
   12    10    13    1
   13    13    14    1
   14    13    15    1
   15    13    16    1
   16    16    17    1
   17    16    18    1
   18    16    19    1
   19    19    20    1
   20    19    21    1
   21    19    22    1
   22     1    23    1
   23    23    24    1
   24    23    25    1
   25    23    26    1
@<TRIPOS>SUBSTRUCTURE
       1 MOL1            1 RESIDUE      1      MOL     
@<SCITEGIC>MOL_PROPERTY
VM2 Rank
SciTegic.value.IntegerValue
200

@<SCITEGIC>MOL_PROPERTY
Conf_Id
SciTegic.value.IntegerValue
1193

@<SCITEGIC>MOL_PROPERTY
Probability
SciTegic.value.DoubleValue
0.00

@<SCITEGIC>MOL_PROPERTY
Sum Probability
SciTegic.value.DoubleValue
100.00

@<SCITEGIC>MOL_PROPERTY
Delta G
SciTegic.value.DoubleValue
7.049

@<SCITEGIC>MOL_PROPERTY
G
SciTegic.value.DoubleValue
82.515

@<SCITEGIC>MOL_PROPERTY
E
SciTegic.value.DoubleValue
49.529

@<SCITEGIC>MOL_PROPERTY
-TS
SciTegic.value.DoubleValue
32.986

@<SCITEGIC>MOL_PROPERTY
U+W
SciTegic.value.DoubleValue
28.067

@<SCITEGIC>MOL_PROPERTY
U
SciTegic.value.DoubleValue
76.549

@<SCITEGIC>MOL_PROPERTY
W
SciTegic.value.DoubleValue
-48.482

@<SCITEGIC>MOL_PROPERTY
W(PB)
SciTegic.value.DoubleValue
-50.645

@<SCITEGIC>MOL_PROPERTY
W(SA)
SciTegic.value.DoubleValue
2.163

@<SCITEGIC>MOL_PROPERTY
Valence
SciTegic.value.DoubleValue
5.808

@<SCITEGIC>MOL_PROPERTY
Coulomb
SciTegic.value.DoubleValue
71.052

@<SCITEGIC>MOL_PROPERTY
VdW
SciTegic.value.DoubleValue
-0.311

@<SCITEGIC>MOL_PROPERTY
VdW6
SciTegic.value.DoubleValue
-8.914

@<SCITEGIC>MOL_PROPERTY
VdW12
SciTegic.value.DoubleValue
8.602

@<SCITEGIC>MOL_PROPERTY
Bond
SciTegic.value.DoubleValue
0.232

@<SCITEGIC>MOL_PROPERTY
Angle
SciTegic.value.DoubleValue
1.493

@<SCITEGIC>MOL_PROPERTY
Pdih
SciTegic.value.DoubleValue
4.083

@<SCITEGIC>MOL_PROPERTY
Idih
SciTegic.value.DoubleValue
0.000

@<SCITEGIC>MOL_PROPERTY
Tether
SciTegic.value.DoubleValue
0.000

@<TRIPOS>MOLECULE
guest-s12_vm2.mol2 : vm2 ligand conformer 201
          26          25           1
SMALL
USER_CHARGES
 
@<TRIPOS>ATOM
       1    N1      20.604156   19.314346   25.118983 N.4        1 MOL1        -0.4857
       2    H1      21.177251   19.381465   24.265079 H          1 MOL1         0.3650
       3    H2      21.042539   18.576719   25.692302 H          1 MOL1         0.3650
       4    C1      19.186252   18.917919   24.755819 C.3        1 MOL1         0.0209
       5    H3      18.727311   19.737291   24.197068 H          1 MOL1         0.0967
       6    H4      18.639677   18.798310   25.694709 H          1 MOL1         0.0967
       7    C2      19.087076   17.610837   23.943214 C.3        1 MOL1        -0.1378
       8    H5      19.780674   16.863829   24.351541 H          1 MOL1         0.0993
       9    H6      18.080882   17.198607   24.096363 H          1 MOL1         0.0993
      10    C3      19.306132   17.768849   22.414732 C.3        1 MOL1        -0.1338
      11    H7      18.522113   18.411715   21.994870 H          1 MOL1         0.0993
      12    H8      19.149166   16.781999   21.957681 H          1 MOL1         0.0993
      13    C4      20.712665   18.272639   21.992341 C.3        1 MOL1        -0.1338
      14    H9      21.458571   17.952325   22.731667 H          1 MOL1         0.0993
      15    H10     21.001496   17.769392   21.059073 H          1 MOL1         0.0993
      16    C5      20.806815   19.803969   21.762698 C.3        1 MOL1        -0.1313
      17    H11     21.866903   20.088544   21.705569 H          1 MOL1         0.0993
      18    H12     20.383182   20.355927   22.610371 H          1 MOL1         0.0993
      19    C6      20.107306   20.261501   20.462122 C.3        1 MOL1        -0.2328
      20    H13     20.247044   21.339527   20.309520 H          1 MOL1         0.1004
      21    H14     19.027948   20.069274   20.491525 H          1 MOL1         0.1004
      22    H15     20.522382   19.744259   19.587375 H          1 MOL1         0.1004
      23    C7      20.597598   20.639941   25.867091 C.3        1 MOL1        -0.0781
      24    H16     20.156545   21.409939   25.230341 H          1 MOL1         0.0978
      25    H17     20.008460   20.533253   26.780577 H          1 MOL1         0.0978
      26    H18     21.624228   20.913749   26.120398 H          1 MOL1         0.0978
@<TRIPOS>BOND
    1     1     2    1
    2     1     3    1
    3     1     4    1
    4     4     5    1
    5     4     6    1
    6     4     7    1
    7     7     8    1
    8     7     9    1
    9     7    10    1
   10    10    11    1
   11    10    12    1
   12    10    13    1
   13    13    14    1
   14    13    15    1
   15    13    16    1
   16    16    17    1
   17    16    18    1
   18    16    19    1
   19    19    20    1
   20    19    21    1
   21    19    22    1
   22     1    23    1
   23    23    24    1
   24    23    25    1
   25    23    26    1
@<TRIPOS>SUBSTRUCTURE
       1 MOL1            1 RESIDUE      1      MOL     
@<SCITEGIC>MOL_PROPERTY
VM2 Rank
SciTegic.value.IntegerValue
201

@<SCITEGIC>MOL_PROPERTY
Conf_Id
SciTegic.value.IntegerValue
440

@<SCITEGIC>MOL_PROPERTY
Probability
SciTegic.value.DoubleValue
0.00

@<SCITEGIC>MOL_PROPERTY
Sum Probability
SciTegic.value.DoubleValue
100.00

@<SCITEGIC>MOL_PROPERTY
Delta G
SciTegic.value.DoubleValue
7.243

@<SCITEGIC>MOL_PROPERTY
G
SciTegic.value.DoubleValue
82.709

@<SCITEGIC>MOL_PROPERTY
E
SciTegic.value.DoubleValue
49.730

@<SCITEGIC>MOL_PROPERTY
-TS
SciTegic.value.DoubleValue
32.980

@<SCITEGIC>MOL_PROPERTY
U+W
SciTegic.value.DoubleValue
28.268

@<SCITEGIC>MOL_PROPERTY
U
SciTegic.value.DoubleValue
77.517

@<SCITEGIC>MOL_PROPERTY
W
SciTegic.value.DoubleValue
-49.249

@<SCITEGIC>MOL_PROPERTY
W(PB)
SciTegic.value.DoubleValue
-51.417

@<SCITEGIC>MOL_PROPERTY
W(SA)
SciTegic.value.DoubleValue
2.168

@<SCITEGIC>MOL_PROPERTY
Valence
SciTegic.value.DoubleValue
6.532

@<SCITEGIC>MOL_PROPERTY
Coulomb
SciTegic.value.DoubleValue
71.087

@<SCITEGIC>MOL_PROPERTY
VdW
SciTegic.value.DoubleValue
-0.102

@<SCITEGIC>MOL_PROPERTY
VdW6
SciTegic.value.DoubleValue
-9.038

@<SCITEGIC>MOL_PROPERTY
VdW12
SciTegic.value.DoubleValue
8.935

@<SCITEGIC>MOL_PROPERTY
Bond
SciTegic.value.DoubleValue
0.274

@<SCITEGIC>MOL_PROPERTY
Angle
SciTegic.value.DoubleValue
1.678

@<SCITEGIC>MOL_PROPERTY
Pdih
SciTegic.value.DoubleValue
4.581

@<SCITEGIC>MOL_PROPERTY
Idih
SciTegic.value.DoubleValue
0.000

@<SCITEGIC>MOL_PROPERTY
Tether
SciTegic.value.DoubleValue
0.000

@<TRIPOS>MOLECULE
guest-s12_vm2.mol2 : vm2 ligand conformer 202
          26          25           1
SMALL
USER_CHARGES
 
@<TRIPOS>ATOM
       1    N1      19.055553   18.658811   24.657383 N.4        1 MOL1        -0.4857
       2    H1      19.186912   18.291906   23.702820 H          1 MOL1         0.3650
       3    H2      18.033731   18.705797   24.798018 H          1 MOL1         0.3650
       4    C1      19.647385   20.056281   24.756176 C.3        1 MOL1         0.0209
       5    H3      19.555944   20.366905   25.800022 H          1 MOL1         0.0967
       6    H4      19.030284   20.726746   24.152818 H          1 MOL1         0.0967
       7    C2      21.122402   20.190987   24.312885 C.3        1 MOL1        -0.1378
       8    H5      21.509931   21.127803   24.734522 H          1 MOL1         0.0993
       9    H6      21.728434   19.394010   24.761748 H          1 MOL1         0.0993
      10    C3      21.352265   20.233254   22.778253 C.3        1 MOL1        -0.1338
      11    H7      22.426056   20.396204   22.611024 H          1 MOL1         0.0993
      12    H8      20.852151   21.111892   22.347673 H          1 MOL1         0.0993
      13    C4      20.936296   18.950735   22.013270 C.3        1 MOL1        -0.1338
      14    H9      21.669961   18.764657   21.216456 H          1 MOL1         0.0993
      15    H10     20.995068   18.077541   22.676679 H          1 MOL1         0.0993
      16    C5      19.538734   19.062234   21.356218 C.3        1 MOL1        -0.1313
      17    H11     19.572963   19.820029   20.560696 H          1 MOL1         0.0993
      18    H12     18.790238   19.415765   22.075499 H          1 MOL1         0.0993
      19    C6      19.080993   17.716404   20.755130 C.3        1 MOL1        -0.2328
      20    H13     18.096672   17.819011   20.279961 H          1 MOL1         0.1004
      21    H14     19.002467   16.940250   21.527290 H          1 MOL1         0.1004
      22    H15     19.787308   17.366120   19.991058 H          1 MOL1         0.1004
      23    C7      19.674372   17.721293   25.687684 C.3        1 MOL1        -0.0781
      24    H16     19.511825   18.130195   26.687264 H          1 MOL1         0.0978
      25    H17     19.199456   16.740812   25.609264 H          1 MOL1         0.0978
      26    H18     20.744825   17.626523   25.495754 H          1 MOL1         0.0978
@<TRIPOS>BOND
    1     1     2    1
    2     1     3    1
    3     1     4    1
    4     4     5    1
    5     4     6    1
    6     4     7    1
    7     7     8    1
    8     7     9    1
    9     7    10    1
   10    10    11    1
   11    10    12    1
   12    10    13    1
   13    13    14    1
   14    13    15    1
   15    13    16    1
   16    16    17    1
   17    16    18    1
   18    16    19    1
   19    19    20    1
   20    19    21    1
   21    19    22    1
   22     1    23    1
   23    23    24    1
   24    23    25    1
   25    23    26    1
@<TRIPOS>SUBSTRUCTURE
       1 MOL1            1 RESIDUE      1      MOL     
@<SCITEGIC>MOL_PROPERTY
VM2 Rank
SciTegic.value.IntegerValue
202

@<SCITEGIC>MOL_PROPERTY
Conf_Id
SciTegic.value.IntegerValue
696

@<SCITEGIC>MOL_PROPERTY
Probability
SciTegic.value.DoubleValue
0.00

@<SCITEGIC>MOL_PROPERTY
Sum Probability
SciTegic.value.DoubleValue
100.00

@<SCITEGIC>MOL_PROPERTY
Delta G
SciTegic.value.DoubleValue
7.512

@<SCITEGIC>MOL_PROPERTY
G
SciTegic.value.DoubleValue
82.978

@<SCITEGIC>MOL_PROPERTY
E
SciTegic.value.DoubleValue
49.845

@<SCITEGIC>MOL_PROPERTY
-TS
SciTegic.value.DoubleValue
33.133

@<SCITEGIC>MOL_PROPERTY
U+W
SciTegic.value.DoubleValue
28.383

@<SCITEGIC>MOL_PROPERTY
U
SciTegic.value.DoubleValue
77.224

@<SCITEGIC>MOL_PROPERTY
W
SciTegic.value.DoubleValue
-48.841

@<SCITEGIC>MOL_PROPERTY
W(PB)
SciTegic.value.DoubleValue
-51.015

@<SCITEGIC>MOL_PROPERTY
W(SA)
SciTegic.value.DoubleValue
2.174

@<SCITEGIC>MOL_PROPERTY
Valence
SciTegic.value.DoubleValue
6.170

@<SCITEGIC>MOL_PROPERTY
Coulomb
SciTegic.value.DoubleValue
71.061

@<SCITEGIC>MOL_PROPERTY
VdW
SciTegic.value.DoubleValue
-0.008

@<SCITEGIC>MOL_PROPERTY
VdW6
SciTegic.value.DoubleValue
-9.540

@<SCITEGIC>MOL_PROPERTY
VdW12
SciTegic.value.DoubleValue
9.532

@<SCITEGIC>MOL_PROPERTY
Bond
SciTegic.value.DoubleValue
0.273

@<SCITEGIC>MOL_PROPERTY
Angle
SciTegic.value.DoubleValue
1.632

@<SCITEGIC>MOL_PROPERTY
Pdih
SciTegic.value.DoubleValue
4.265

@<SCITEGIC>MOL_PROPERTY
Idih
SciTegic.value.DoubleValue
0.000

@<SCITEGIC>MOL_PROPERTY
Tether
SciTegic.value.DoubleValue
0.000

@<TRIPOS>MOLECULE
guest-s12_vm2.mol2 : vm2 ligand conformer 203
          26          25           1
SMALL
USER_CHARGES
 
@<TRIPOS>ATOM
       1    N1      20.201267   20.090697   24.924059 N.4        1 MOL1        -0.4857
       2    H1      19.723069   20.332444   24.043954 H          1 MOL1         0.3650
       3    H2      20.830908   20.884237   25.123751 H          1 MOL1         0.3650
       4    C1      21.022396   18.825244   24.733930 C.3        1 MOL1         0.0209
       5    H3      21.433585   18.563644   25.712167 H          1 MOL1         0.0967
       6    H4      21.859136   19.062380   24.072057 H          1 MOL1         0.0967
       7    C2      20.254886   17.610948   24.163234 C.3        1 MOL1        -0.1378
       8    H5      20.833625   16.710390   24.407424 H          1 MOL1         0.0993
       9    H6      19.292885   17.490698   24.677025 H          1 MOL1         0.0993
      10    C3      20.040714   17.631137   22.626374 C.3        1 MOL1        -0.1338
      11    H7      19.561414   16.682128   22.348859 H          1 MOL1         0.0993
      12    H8      21.013818   17.625521   22.118895 H          1 MOL1         0.0993
      13    C4      19.151523   18.788726   22.098102 C.3        1 MOL1        -0.1338
      14    H9      18.507270   18.402783   21.295839 H          1 MOL1         0.0993
      15    H10     18.460408   19.115814   22.886320 H          1 MOL1         0.0993
      16    C5      19.944672   19.999754   21.541912 C.3        1 MOL1        -0.1313
      17    H11     20.722331   20.315695   22.248051 H          1 MOL1         0.0993
      18    H12     19.259435   20.851801   21.429854 H          1 MOL1         0.0993
      19    C6      20.595600   19.711195   20.169621 C.3        1 MOL1        -0.2328
      20    H13     21.340363   18.908576   20.233654 H          1 MOL1         0.1004
      21    H14     21.105130   20.606267   19.789905 H          1 MOL1         0.1004
      22    H15     19.840824   19.417459   19.428639 H          1 MOL1         0.1004
      23    C7      19.196942   19.932299   26.059768 C.3        1 MOL1        -0.0781
      24    H16     19.732230   19.687772   26.979799 H          1 MOL1         0.0978
      25    H17     18.652674   20.870476   26.188739 H          1 MOL1         0.0978
      26    H18     18.495594   19.132231   25.815461 H          1 MOL1         0.0978
@<TRIPOS>BOND
    1     1     2    1
    2     1     3    1
    3     1     4    1
    4     4     5    1
    5     4     6    1
    6     4     7    1
    7     7     8    1
    8     7     9    1
    9     7    10    1
   10    10    11    1
   11    10    12    1
   12    10    13    1
   13    13    14    1
   14    13    15    1
   15    13    16    1
   16    16    17    1
   17    16    18    1
   18    16    19    1
   19    19    20    1
   20    19    21    1
   21    19    22    1
   22     1    23    1
   23    23    24    1
   24    23    25    1
   25    23    26    1
@<TRIPOS>SUBSTRUCTURE
       1 MOL1            1 RESIDUE      1      MOL     
@<SCITEGIC>MOL_PROPERTY
VM2 Rank
SciTegic.value.IntegerValue
203

@<SCITEGIC>MOL_PROPERTY
Conf_Id
SciTegic.value.IntegerValue
281

@<SCITEGIC>MOL_PROPERTY
Probability
SciTegic.value.DoubleValue
0.00

@<SCITEGIC>MOL_PROPERTY
Sum Probability
SciTegic.value.DoubleValue
100.00

@<SCITEGIC>MOL_PROPERTY
Delta G
SciTegic.value.DoubleValue
7.521

@<SCITEGIC>MOL_PROPERTY
G
SciTegic.value.DoubleValue
82.987

@<SCITEGIC>MOL_PROPERTY
E
SciTegic.value.DoubleValue
49.907

@<SCITEGIC>MOL_PROPERTY
-TS
SciTegic.value.DoubleValue
33.080

@<SCITEGIC>MOL_PROPERTY
U+W
SciTegic.value.DoubleValue
28.445

@<SCITEGIC>MOL_PROPERTY
U
SciTegic.value.DoubleValue
78.200

@<SCITEGIC>MOL_PROPERTY
W
SciTegic.value.DoubleValue
-49.755

@<SCITEGIC>MOL_PROPERTY
W(PB)
SciTegic.value.DoubleValue
-51.918

@<SCITEGIC>MOL_PROPERTY
W(SA)
SciTegic.value.DoubleValue
2.163

@<SCITEGIC>MOL_PROPERTY
Valence
SciTegic.value.DoubleValue
6.881

@<SCITEGIC>MOL_PROPERTY
Coulomb
SciTegic.value.DoubleValue
71.120

@<SCITEGIC>MOL_PROPERTY
VdW
SciTegic.value.DoubleValue
0.199

@<SCITEGIC>MOL_PROPERTY
VdW6
SciTegic.value.DoubleValue
-9.620

@<SCITEGIC>MOL_PROPERTY
VdW12
SciTegic.value.DoubleValue
9.819

@<SCITEGIC>MOL_PROPERTY
Bond
SciTegic.value.DoubleValue
0.310

@<SCITEGIC>MOL_PROPERTY
Angle
SciTegic.value.DoubleValue
1.755

@<SCITEGIC>MOL_PROPERTY
Pdih
SciTegic.value.DoubleValue
4.816

@<SCITEGIC>MOL_PROPERTY
Idih
SciTegic.value.DoubleValue
0.000

@<SCITEGIC>MOL_PROPERTY
Tether
SciTegic.value.DoubleValue
0.000

@<TRIPOS>MOLECULE
guest-s12_vm2.mol2 : vm2 ligand conformer 204
          26          25           1
SMALL
USER_CHARGES
 
@<TRIPOS>ATOM
       1    N1      21.012290   18.862178   24.726710 N.4        1 MOL1        -0.4857
       2    H1      21.990313   19.117108   24.937870 H          1 MOL1         0.3650
       3    H2      21.026029   18.482741   23.768116 H          1 MOL1         0.3650
       4    C1      20.140590   20.107529   24.773453 C.3        1 MOL1         0.0209
       5    H3      20.647425   20.894703   24.209666 H          1 MOL1         0.0967
       6    H4      20.093091   20.422955   25.818783 H          1 MOL1         0.0967
       7    C2      18.704025   19.939434   24.227237 C.3        1 MOL1        -0.1378
       8    H5      18.244866   19.031704   24.638482 H          1 MOL1         0.0993
       9    H6      18.103762   20.773545   24.613918 H          1 MOL1         0.0993
      10    C3      18.578157   19.944646   22.680029 C.3        1 MOL1        -0.1338
      11    H7      18.915748   20.910439   22.279036 H          1 MOL1         0.0993
      12    H8      17.508165   19.884526   22.437027 H          1 MOL1         0.0993
      13    C4      19.301345   18.780651   21.955323 C.3        1 MOL1        -0.1338
      14    H9      19.377039   17.909182   22.619284 H          1 MOL1         0.0993
      15    H10     18.679178   18.453597   21.110486 H          1 MOL1         0.0993
      16    C5      20.688617   19.181840   21.396885 C.3        1 MOL1        -0.1313
      17    H11     21.296303   19.676289   22.164238 H          1 MOL1         0.0993
      18    H12     20.555109   19.922308   20.595533 H          1 MOL1         0.0993
      19    C6      21.454069   17.963301   20.838912 C.3        1 MOL1        -0.2328
      20    H13     20.890001   17.480973   20.029855 H          1 MOL1         0.1004
      21    H14     21.636294   17.214181   21.620210 H          1 MOL1         0.1004
      22    H15     22.427032   18.269535   20.432999 H          1 MOL1         0.1004
      23    C7      20.528907   17.810421   25.718451 C.3        1 MOL1        -0.0781
      24    H16     19.516810   17.499079   25.453096 H          1 MOL1         0.0978
      25    H17     21.199402   16.948995   25.680781 H          1 MOL1         0.0978
      26    H18     20.533832   18.237081   26.723797 H          1 MOL1         0.0978
@<TRIPOS>BOND
    1     1     2    1
    2     1     3    1
    3     1     4    1
    4     4     5    1
    5     4     6    1
    6     4     7    1
    7     7     8    1
    8     7     9    1
    9     7    10    1
   10    10    11    1
   11    10    12    1
   12    10    13    1
   13    13    14    1
   14    13    15    1
   15    13    16    1
   16    16    17    1
   17    16    18    1
   18    16    19    1
   19    19    20    1
   20    19    21    1
   21    19    22    1
   22     1    23    1
   23    23    24    1
   24    23    25    1
   25    23    26    1
@<TRIPOS>SUBSTRUCTURE
       1 MOL1            1 RESIDUE      1      MOL     
@<SCITEGIC>MOL_PROPERTY
VM2 Rank
SciTegic.value.IntegerValue
204

@<SCITEGIC>MOL_PROPERTY
Conf_Id
SciTegic.value.IntegerValue
111

@<SCITEGIC>MOL_PROPERTY
Probability
SciTegic.value.DoubleValue
0.00

@<SCITEGIC>MOL_PROPERTY
Sum Probability
SciTegic.value.DoubleValue
100.00

@<SCITEGIC>MOL_PROPERTY
Delta G
SciTegic.value.DoubleValue
7.534

@<SCITEGIC>MOL_PROPERTY
G
SciTegic.value.DoubleValue
83.000

@<SCITEGIC>MOL_PROPERTY
E
SciTegic.value.DoubleValue
49.866

@<SCITEGIC>MOL_PROPERTY
-TS
SciTegic.value.DoubleValue
33.133

@<SCITEGIC>MOL_PROPERTY
U+W
SciTegic.value.DoubleValue
28.405

@<SCITEGIC>MOL_PROPERTY
U
SciTegic.value.DoubleValue
77.224

@<SCITEGIC>MOL_PROPERTY
W
SciTegic.value.DoubleValue
-48.819

@<SCITEGIC>MOL_PROPERTY
W(PB)
SciTegic.value.DoubleValue
-51.002

@<SCITEGIC>MOL_PROPERTY
W(SA)
SciTegic.value.DoubleValue
2.183

@<SCITEGIC>MOL_PROPERTY
Valence
SciTegic.value.DoubleValue
6.170

@<SCITEGIC>MOL_PROPERTY
Coulomb
SciTegic.value.DoubleValue
71.061

@<SCITEGIC>MOL_PROPERTY
VdW
SciTegic.value.DoubleValue
-0.008

@<SCITEGIC>MOL_PROPERTY
VdW6
SciTegic.value.DoubleValue
-9.539

@<SCITEGIC>MOL_PROPERTY
VdW12
SciTegic.value.DoubleValue
9.531

@<SCITEGIC>MOL_PROPERTY
Bond
SciTegic.value.DoubleValue
0.273

@<SCITEGIC>MOL_PROPERTY
Angle
SciTegic.value.DoubleValue
1.632

@<SCITEGIC>MOL_PROPERTY
Pdih
SciTegic.value.DoubleValue
4.265

@<SCITEGIC>MOL_PROPERTY
Idih
SciTegic.value.DoubleValue
0.000

@<SCITEGIC>MOL_PROPERTY
Tether
SciTegic.value.DoubleValue
0.000

@<TRIPOS>MOLECULE
guest-s12_vm2.mol2 : vm2 ligand conformer 205
          26          25           1
SMALL
USER_CHARGES
 
@<TRIPOS>ATOM
       1    N1      19.590656   20.030438   24.902391 N.4        1 MOL1        -0.4857
       2    H1      18.805731   20.684413   25.051526 H          1 MOL1         0.3650
       3    H2      20.073467   20.366998   24.056625 H          1 MOL1         0.3650
       4    C1      19.047855   18.630402   24.663548 C.3        1 MOL1         0.0209
       5    H3      18.627712   18.286705   25.612131 H          1 MOL1         0.0967
       6    H4      18.229721   18.704267   23.942686 H          1 MOL1         0.0967
       7    C2      20.075965   17.593352   24.156802 C.3        1 MOL1        -0.1378
       8    H5      21.004355   17.659816   24.737804 H          1 MOL1         0.0993
       9    H6      19.668563   16.595440   24.366013 H          1 MOL1         0.0993
      10    C3      20.389643   17.665531   22.638705 C.3        1 MOL1        -0.1338
      11    H7      19.474566   17.473314   22.064087 H          1 MOL1         0.0993
      12    H8      21.063483   16.830420   22.402292 H          1 MOL1         0.0993
      13    C4      21.070379   18.978168   22.166136 C.3        1 MOL1        -0.1338
      14    H9      21.627232   19.428478   22.998632 H          1 MOL1         0.0993
      15    H10     21.832286   18.731103   21.413741 H          1 MOL1         0.0993
      16    C5      20.096956   20.014763   21.547310 C.3        1 MOL1        -0.1313
      17    H11     20.608706   20.984999   21.477703 H          1 MOL1         0.0993
      18    H12     19.224986   20.167827   22.194953 H          1 MOL1         0.0993
      19    C6      19.612824   19.614146   20.134767 C.3        1 MOL1        -0.2328
      20    H13     18.966245   20.395096   19.714041 H          1 MOL1         0.1004
      21    H14     19.036500   18.681126   20.151952 H          1 MOL1         0.1004
      22    H15     20.460522   19.478584   19.450622 H          1 MOL1         0.1004
      23    C7      20.523723   20.063201   26.107341 C.3        1 MOL1        -0.0781
      24    H16     20.863889   21.088645   26.267928 H          1 MOL1         0.0978
      25    H17     19.982779   19.712473   26.988903 H          1 MOL1         0.0978
      26    H18     21.383232   19.417146   25.918820 H          1 MOL1         0.0978
@<TRIPOS>BOND
    1     1     2    1
    2     1     3    1
    3     1     4    1
    4     4     5    1
    5     4     6    1
    6     4     7    1
    7     7     8    1
    8     7     9    1
    9     7    10    1
   10    10    11    1
   11    10    12    1
   12    10    13    1
   13    13    14    1
   14    13    15    1
   15    13    16    1
   16    16    17    1
   17    16    18    1
   18    16    19    1
   19    19    20    1
   20    19    21    1
   21    19    22    1
   22     1    23    1
   23    23    24    1
   24    23    25    1
   25    23    26    1
@<TRIPOS>SUBSTRUCTURE
       1 MOL1            1 RESIDUE      1      MOL     
@<SCITEGIC>MOL_PROPERTY
VM2 Rank
SciTegic.value.IntegerValue
205

@<SCITEGIC>MOL_PROPERTY
Conf_Id
SciTegic.value.IntegerValue
1371

@<SCITEGIC>MOL_PROPERTY
Probability
SciTegic.value.DoubleValue
0.00

@<SCITEGIC>MOL_PROPERTY
Sum Probability
SciTegic.value.DoubleValue
100.00

@<SCITEGIC>MOL_PROPERTY
Delta G
SciTegic.value.DoubleValue
7.567

@<SCITEGIC>MOL_PROPERTY
G
SciTegic.value.DoubleValue
83.033

@<SCITEGIC>MOL_PROPERTY
E
SciTegic.value.DoubleValue
49.953

@<SCITEGIC>MOL_PROPERTY
-TS
SciTegic.value.DoubleValue
33.080

@<SCITEGIC>MOL_PROPERTY
U+W
SciTegic.value.DoubleValue
28.491

@<SCITEGIC>MOL_PROPERTY
U
SciTegic.value.DoubleValue
78.200

@<SCITEGIC>MOL_PROPERTY
W
SciTegic.value.DoubleValue
-49.709

@<SCITEGIC>MOL_PROPERTY
W(PB)
SciTegic.value.DoubleValue
-51.908

@<SCITEGIC>MOL_PROPERTY
W(SA)
SciTegic.value.DoubleValue
2.199

@<SCITEGIC>MOL_PROPERTY
Valence
SciTegic.value.DoubleValue
6.881

@<SCITEGIC>MOL_PROPERTY
Coulomb
SciTegic.value.DoubleValue
71.120

@<SCITEGIC>MOL_PROPERTY
VdW
SciTegic.value.DoubleValue
0.199

@<SCITEGIC>MOL_PROPERTY
VdW6
SciTegic.value.DoubleValue
-9.619

@<SCITEGIC>MOL_PROPERTY
VdW12
SciTegic.value.DoubleValue
9.819

@<SCITEGIC>MOL_PROPERTY
Bond
SciTegic.value.DoubleValue
0.310

@<SCITEGIC>MOL_PROPERTY
Angle
SciTegic.value.DoubleValue
1.755

@<SCITEGIC>MOL_PROPERTY
Pdih
SciTegic.value.DoubleValue
4.816

@<SCITEGIC>MOL_PROPERTY
Idih
SciTegic.value.DoubleValue
0.000

@<SCITEGIC>MOL_PROPERTY
Tether
SciTegic.value.DoubleValue
0.000

@<TRIPOS>MOLECULE
guest-s12_vm2.mol2 : vm2 ligand conformer 206
          26          25           1
SMALL
USER_CHARGES
 
@<TRIPOS>ATOM
       1    N1      20.611650   18.540247   25.491096 N.4        1 MOL1        -0.4857
       2    H1      21.270538   18.166176   24.792460 H          1 MOL1         0.3650
       3    H2      20.804902   18.006898   26.353510 H          1 MOL1         0.3650
       4    C1      19.178310   18.285329   25.054783 C.3        1 MOL1         0.0209
       5    H3      18.533762   19.005768   25.564449 H          1 MOL1         0.0967
       6    H4      18.914899   17.290128   25.422003 H          1 MOL1         0.0967
       7    C2      18.912018   18.312373   23.530957 C.3        1 MOL1        -0.1378
       8    H5      19.530985   17.554657   23.036492 H          1 MOL1         0.0993
       9    H6      17.872566   17.992477   23.380153 H          1 MOL1         0.0993
      10    C3      19.088555   19.700630   22.860056 C.3        1 MOL1        -0.1338
      11    H7      18.810766   20.481396   23.581217 H          1 MOL1         0.0993
      12    H8      18.368122   19.800055   22.036530 H          1 MOL1         0.0993
      13    C4      20.516378   19.977806   22.315319 C.3        1 MOL1        -0.1338
      14    H9      20.726561   21.049724   22.433824 H          1 MOL1         0.0993
      15    H10     21.271119   19.457430   22.917670 H          1 MOL1         0.0993
      16    C5      20.710570   19.625645   20.818269 C.3        1 MOL1        -0.1313
      17    H11     21.719175   19.937714   20.513073 H          1 MOL1         0.0993
      18    H12     20.012638   20.215147   20.207397 H          1 MOL1         0.0993
      19    C6      20.536316   18.125648   20.492999 C.3        1 MOL1        -0.2328
      20    H13     21.202868   17.507187   21.107703 H          1 MOL1         0.1004
      21    H14     20.776152   17.931212   19.439656 H          1 MOL1         0.1004
      22    H15     19.502911   17.797646   20.660459 H          1 MOL1         0.1004
      23    C7      20.854203   20.022322   25.753519 C.3        1 MOL1        -0.0781
      24    H16     20.172265   20.362785   26.535696 H          1 MOL1         0.0978
      25    H17     21.887137   20.162891   26.079538 H          1 MOL1         0.0978
      26    H18     20.677106   20.589406   24.838791 H          1 MOL1         0.0978
@<TRIPOS>BOND
    1     1     2    1
    2     1     3    1
    3     1     4    1
    4     4     5    1
    5     4     6    1
    6     4     7    1
    7     7     8    1
    8     7     9    1
    9     7    10    1
   10    10    11    1
   11    10    12    1
   12    10    13    1
   13    13    14    1
   14    13    15    1
   15    13    16    1
   16    16    17    1
   17    16    18    1
   18    16    19    1
   19    19    20    1
   20    19    21    1
   21    19    22    1
   22     1    23    1
   23    23    24    1
   24    23    25    1
   25    23    26    1
@<TRIPOS>SUBSTRUCTURE
       1 MOL1            1 RESIDUE      1      MOL     
@<SCITEGIC>MOL_PROPERTY
VM2 Rank
SciTegic.value.IntegerValue
206

@<SCITEGIC>MOL_PROPERTY
Conf_Id
SciTegic.value.IntegerValue
279

@<SCITEGIC>MOL_PROPERTY
Probability
SciTegic.value.DoubleValue
0.00

@<SCITEGIC>MOL_PROPERTY
Sum Probability
SciTegic.value.DoubleValue
100.00

@<SCITEGIC>MOL_PROPERTY
Delta G
SciTegic.value.DoubleValue
7.926

@<SCITEGIC>MOL_PROPERTY
G
SciTegic.value.DoubleValue
83.392

@<SCITEGIC>MOL_PROPERTY
E
SciTegic.value.DoubleValue
50.058

@<SCITEGIC>MOL_PROPERTY
-TS
SciTegic.value.DoubleValue
33.334

@<SCITEGIC>MOL_PROPERTY
U+W
SciTegic.value.DoubleValue
28.596

@<SCITEGIC>MOL_PROPERTY
U
SciTegic.value.DoubleValue
78.886

@<SCITEGIC>MOL_PROPERTY
W
SciTegic.value.DoubleValue
-50.289

@<SCITEGIC>MOL_PROPERTY
W(PB)
SciTegic.value.DoubleValue
-52.434

@<SCITEGIC>MOL_PROPERTY
W(SA)
SciTegic.value.DoubleValue
2.145

@<SCITEGIC>MOL_PROPERTY
Valence
SciTegic.value.DoubleValue
8.514

@<SCITEGIC>MOL_PROPERTY
Coulomb
SciTegic.value.DoubleValue
70.280

@<SCITEGIC>MOL_PROPERTY
VdW
SciTegic.value.DoubleValue
0.092

@<SCITEGIC>MOL_PROPERTY
VdW6
SciTegic.value.DoubleValue
-9.823

@<SCITEGIC>MOL_PROPERTY
VdW12
SciTegic.value.DoubleValue
9.915

@<SCITEGIC>MOL_PROPERTY
Bond
SciTegic.value.DoubleValue
0.314

@<SCITEGIC>MOL_PROPERTY
Angle
SciTegic.value.DoubleValue
1.918

@<SCITEGIC>MOL_PROPERTY
Pdih
SciTegic.value.DoubleValue
6.283

@<SCITEGIC>MOL_PROPERTY
Idih
SciTegic.value.DoubleValue
0.000

@<SCITEGIC>MOL_PROPERTY
Tether
SciTegic.value.DoubleValue
0.000

@<TRIPOS>MOLECULE
guest-s12_vm2.mol2 : vm2 ligand conformer 207
          26          25           1
SMALL
USER_CHARGES
 
@<TRIPOS>ATOM
       1    N1      19.420583   18.506374   24.781713 N.4        1 MOL1        -0.4857
       2    H1      19.572829   17.504898   24.587493 H          1 MOL1         0.3650
       3    H2      18.906363   18.873162   23.968113 H          1 MOL1         0.3650
       4    C1      20.751944   19.217360   24.910855 C.3        1 MOL1         0.0209
       5    H3      21.295881   18.728377   25.722995 H          1 MOL1         0.0967
       6    H4      20.560951   20.251915   25.206657 H          1 MOL1         0.0967
       7    C2      21.620548   19.196620   23.635052 C.3        1 MOL1        -0.1378
       8    H5      22.654946   19.395253   23.945395 H          1 MOL1         0.0993
       9    H6      21.640921   18.195666   23.190276 H          1 MOL1         0.0993
      10    C3      21.238310   20.273090   22.585857 C.3        1 MOL1        -0.1338
      11    H7      22.018249   20.298502   21.812366 H          1 MOL1         0.0993
      12    H8      21.280893   21.256791   23.073795 H          1 MOL1         0.0993
      13    C4      19.857473   20.134580   21.888377 C.3        1 MOL1        -0.1338
      14    H9      19.037274   20.142656   22.615355 H          1 MOL1         0.0993
      15    H10     19.713466   21.049759   21.297160 H          1 MOL1         0.0993
      16    C5      19.727045   18.937570   20.909840 C.3        1 MOL1        -0.1313
      17    H11     20.689994   18.742020   20.417807 H          1 MOL1         0.0993
      18    H12     19.035186   19.227396   20.106376 H          1 MOL1         0.0993
      19    C6      19.182750   17.639363   21.548274 C.3        1 MOL1        -0.2328
      20    H13     19.878899   17.214358   22.277543 H          1 MOL1         0.1004
      21    H14     19.023310   16.877022   20.774575 H          1 MOL1         0.1004
      22    H15     18.217387   17.812596   22.040576 H          1 MOL1         0.1004
      23    C7      18.609347   18.685042   26.057031 C.3        1 MOL1        -0.0781
      24    H16     18.435681   19.750030   26.225993 H          1 MOL1         0.0978
      25    H17     17.653400   18.167645   25.949523 H          1 MOL1         0.0978
      26    H18     19.164644   18.262985   26.897522 H          1 MOL1         0.0978
@<TRIPOS>BOND
    1     1     2    1
    2     1     3    1
    3     1     4    1
    4     4     5    1
    5     4     6    1
    6     4     7    1
    7     7     8    1
    8     7     9    1
    9     7    10    1
   10    10    11    1
   11    10    12    1
   12    10    13    1
   13    13    14    1
   14    13    15    1
   15    13    16    1
   16    16    17    1
   17    16    18    1
   18    16    19    1
   19    19    20    1
   20    19    21    1
   21    19    22    1
   22     1    23    1
   23    23    24    1
   24    23    25    1
   25    23    26    1
@<TRIPOS>SUBSTRUCTURE
       1 MOL1            1 RESIDUE      1      MOL     
@<SCITEGIC>MOL_PROPERTY
VM2 Rank
SciTegic.value.IntegerValue
207

@<SCITEGIC>MOL_PROPERTY
Conf_Id
SciTegic.value.IntegerValue
852

@<SCITEGIC>MOL_PROPERTY
Probability
SciTegic.value.DoubleValue
0.00

@<SCITEGIC>MOL_PROPERTY
Sum Probability
SciTegic.value.DoubleValue
100.00

@<SCITEGIC>MOL_PROPERTY
Delta G
SciTegic.value.DoubleValue
8.541

@<SCITEGIC>MOL_PROPERTY
G
SciTegic.value.DoubleValue
84.007

@<SCITEGIC>MOL_PROPERTY
E
SciTegic.value.DoubleValue
50.996

@<SCITEGIC>MOL_PROPERTY
-TS
SciTegic.value.DoubleValue
33.012

@<SCITEGIC>MOL_PROPERTY
U+W
SciTegic.value.DoubleValue
29.534

@<SCITEGIC>MOL_PROPERTY
U
SciTegic.value.DoubleValue
78.058

@<SCITEGIC>MOL_PROPERTY
W
SciTegic.value.DoubleValue
-48.524

@<SCITEGIC>MOL_PROPERTY
W(PB)
SciTegic.value.DoubleValue
-50.675

@<SCITEGIC>MOL_PROPERTY
W(SA)
SciTegic.value.DoubleValue
2.150

@<SCITEGIC>MOL_PROPERTY
Valence
SciTegic.value.DoubleValue
6.916

@<SCITEGIC>MOL_PROPERTY
Coulomb
SciTegic.value.DoubleValue
71.698

@<SCITEGIC>MOL_PROPERTY
VdW
SciTegic.value.DoubleValue
-0.555

@<SCITEGIC>MOL_PROPERTY
VdW6
SciTegic.value.DoubleValue
-9.227

@<SCITEGIC>MOL_PROPERTY
VdW12
SciTegic.value.DoubleValue
8.672

@<SCITEGIC>MOL_PROPERTY
Bond
SciTegic.value.DoubleValue
0.274

@<SCITEGIC>MOL_PROPERTY
Angle
SciTegic.value.DoubleValue
2.757

@<SCITEGIC>MOL_PROPERTY
Pdih
SciTegic.value.DoubleValue
3.885

@<SCITEGIC>MOL_PROPERTY
Idih
SciTegic.value.DoubleValue
0.000

@<SCITEGIC>MOL_PROPERTY
Tether
SciTegic.value.DoubleValue
0.000

@<TRIPOS>MOLECULE
guest-s12_vm2.mol2 : vm2 ligand conformer 208
          26          25           1
SMALL
USER_CHARGES
 
@<TRIPOS>ATOM
       1    N1      20.677728   18.635741   24.826225 N.4        1 MOL1        -0.4857
       2    H1      21.162122   19.105019   24.047736 H          1 MOL1         0.3650
       3    H2      20.746382   17.625581   24.629447 H          1 MOL1         0.3650
       4    C1      19.223855   19.060030   24.856738 C.3        1 MOL1         0.0209
       5    H3      19.179192   20.109745   25.157380 H          1 MOL1         0.0967
       6    H4      18.735376   18.465012   25.632549 H          1 MOL1         0.0967
       7    C2      18.469025   18.871740   23.523564 C.3        1 MOL1        -0.1378
       8    H5      18.684140   17.890787   23.085837 H          1 MOL1         0.0993
       9    H6      17.396745   18.853266   23.759409 H          1 MOL1         0.0993
      10    C3      18.696317   20.010870   22.495741 C.3        1 MOL1        -0.1338
      11    H7      18.419895   20.961748   22.972172 H          1 MOL1         0.0993
      12    H8      17.983793   19.882121   21.669319 H          1 MOL1         0.0993
      13    C4      20.121835   20.161852   21.897841 C.3        1 MOL1        -0.1338
      14    H9      20.117337   21.091458   21.311633 H          1 MOL1         0.0993
      15    H10     20.870121   20.331664   22.680479 H          1 MOL1         0.0993
      16    C5      20.561855   19.023764   20.939448 C.3        1 MOL1        -0.1313
      17    H11     21.234955   19.454368   20.184637 H          1 MOL1         0.0993
      18    H12     19.695975   18.639843   20.382256 H          1 MOL1         0.0993
      19    C6      21.312866   17.858924   21.623788 C.3        1 MOL1        -0.2328
      20    H13     22.185670   18.221471   22.181524 H          1 MOL1         0.1004
      21    H14     21.678215   17.150772   20.868649 H          1 MOL1         0.1004
      22    H15     20.668344   17.295672   22.305274 H          1 MOL1         0.1004
      23    C7      21.344518   18.967079   26.153654 C.3        1 MOL1        -0.0781
      24    H16     20.829329   18.435213   26.956531 H          1 MOL1         0.0978
      25    H17     22.390845   18.655706   26.117070 H          1 MOL1         0.0978
      26    H18     21.285696   20.043959   26.326207 H          1 MOL1         0.0978
@<TRIPOS>BOND
    1     1     2    1
    2     1     3    1
    3     1     4    1
    4     4     5    1
    5     4     6    1
    6     4     7    1
    7     7     8    1
    8     7     9    1
    9     7    10    1
   10    10    11    1
   11    10    12    1
   12    10    13    1
   13    13    14    1
   14    13    15    1
   15    13    16    1
   16    16    17    1
   17    16    18    1
   18    16    19    1
   19    19    20    1
   20    19    21    1
   21    19    22    1
   22     1    23    1
   23    23    24    1
   24    23    25    1
   25    23    26    1
@<TRIPOS>SUBSTRUCTURE
       1 MOL1            1 RESIDUE      1      MOL     
@<SCITEGIC>MOL_PROPERTY
VM2 Rank
SciTegic.value.IntegerValue
208

@<SCITEGIC>MOL_PROPERTY
Conf_Id
SciTegic.value.IntegerValue
159

@<SCITEGIC>MOL_PROPERTY
Probability
SciTegic.value.DoubleValue
0.00

@<SCITEGIC>MOL_PROPERTY
Sum Probability
SciTegic.value.DoubleValue
100.00

@<SCITEGIC>MOL_PROPERTY
Delta G
SciTegic.value.DoubleValue
8.649

@<SCITEGIC>MOL_PROPERTY
G
SciTegic.value.DoubleValue
84.115

@<SCITEGIC>MOL_PROPERTY
E
SciTegic.value.DoubleValue
51.102

@<SCITEGIC>MOL_PROPERTY
-TS
SciTegic.value.DoubleValue
33.012

@<SCITEGIC>MOL_PROPERTY
U+W
SciTegic.value.DoubleValue
29.641

@<SCITEGIC>MOL_PROPERTY
U
SciTegic.value.DoubleValue
78.058

@<SCITEGIC>MOL_PROPERTY
W
SciTegic.value.DoubleValue
-48.418

@<SCITEGIC>MOL_PROPERTY
W(PB)
SciTegic.value.DoubleValue
-50.581

@<SCITEGIC>MOL_PROPERTY
W(SA)
SciTegic.value.DoubleValue
2.164

@<SCITEGIC>MOL_PROPERTY
Valence
SciTegic.value.DoubleValue
6.916

@<SCITEGIC>MOL_PROPERTY
Coulomb
SciTegic.value.DoubleValue
71.697

@<SCITEGIC>MOL_PROPERTY
VdW
SciTegic.value.DoubleValue
-0.556

@<SCITEGIC>MOL_PROPERTY
VdW6
SciTegic.value.DoubleValue
-9.228

@<SCITEGIC>MOL_PROPERTY
VdW12
SciTegic.value.DoubleValue
8.672

@<SCITEGIC>MOL_PROPERTY
Bond
SciTegic.value.DoubleValue
0.274

@<SCITEGIC>MOL_PROPERTY
Angle
SciTegic.value.DoubleValue
2.757

@<SCITEGIC>MOL_PROPERTY
Pdih
SciTegic.value.DoubleValue
3.885

@<SCITEGIC>MOL_PROPERTY
Idih
SciTegic.value.DoubleValue
0.000

@<SCITEGIC>MOL_PROPERTY
Tether
SciTegic.value.DoubleValue
0.000

