VeraChem MOL file


 22 22  0  0  0  0  0  0  0  0999 V2000     
   19.7077   19.0202   20.9158 C   0  0  0  0  0  0  0  0  0  0  0  0
   19.9892   18.8865   19.8623 H   0  0  0  0  0  0  0  0  0  0  0  0
   18.7523   18.4924   21.0393 H   0  0  0  0  0  0  0  0  0  0  0  0
   19.4965   20.5301   21.1695 C   0  0  0  0  0  0  0  0  0  0  0  0
   20.3891   21.0826   20.8457 H   0  0  0  0  0  0  0  0  0  0  0  0
   18.6796   20.8754   20.5213 H   0  0  0  0  0  0  0  0  0  0  0  0
   19.1585   20.9072   22.6312 C   0  0  0  0  0  0  0  0  0  0  0  0
   18.3049   20.3213   22.9970 H   0  0  0  0  0  0  0  0  0  0  0  0
   18.8334   21.9565   22.6388 H   0  0  0  0  0  0  0  0  0  0  0  0
   20.3739   20.7752   23.5818 C   0  0  0  0  0  0  0  0  0  0  0  0
   21.2860   21.0756   23.0502 H   0  0  0  0  0  0  0  0  0  0  0  0
   20.2667   21.5001   24.3999 H   0  0  0  0  0  0  0  0  0  0  0  0
   20.5910   19.3752   24.2016 C   0  0  0  0  0  0  0  0  0  0  0  0
   21.6379   19.3256   24.5339 H   0  0  0  0  0  0  0  0  0  0  0  0
   20.3291   18.1692   23.2697 C   0  0  0  0  0  0  0  0  0  0  0  0
   20.8571   17.3060   23.6955 H   0  0  0  0  0  0  0  0  0  0  0  0
   19.2643   17.9021   23.2874 H   0  0  0  0  0  0  0  0  0  0  0  0
   20.7852   18.3510   21.8018 C   0  0  0  0  0  0  0  0  0  0  0  0
   21.7331   18.9038   21.7508 H   0  0  0  0  0  0  0  0  0  0  0  0
   20.9901   17.3559   21.3841 H   0  0  0  0  0  0  0  0  0  0  0  0
   19.7440   19.2498   25.3356 O   0  0  0  0  0  0  0  0  0  0  0  0
   18.8338   19.3997   25.0082 H   0  0  0  0  0  0  0  0  0  0  0  0
  1  2  1  0  0  0  0
  1  3  1  0  0  0  0
  1  4  1  0  0  0  0
  4  5  1  0  0  0  0
  4  6  1  0  0  0  0
  4  7  1  0  0  0  0
  7  8  1  0  0  0  0
  7  9  1  0  0  0  0
  7 10  1  0  0  0  0
 10 11  1  0  0  0  0
 10 12  1  0  0  0  0
 10 13  1  0  0  0  0
 13 14  1  0  0  0  0
 13 15  1  0  0  0  0
 15 16  1  0  0  0  0
 15 17  1  0  0  0  0
  1 18  1  0  0  0  0
 15 18  1  0  0  0  0
 18 19  1  0  0  0  0
 18 20  1  0  0  0  0
 13 21  1  0  0  0  0
 21 22  1  0  0  0  0
M  END
> <VM2 Rank>
1

> <Conf_Id>
787

> <Probability>
8.29

> <Sum Probability>
8.29

> <Delta G>
0.000

> <G>
47.387

> <E>
20.718

> <-TS>
26.669

> <U+W>
2.833

> <U>
4.530

> <W>
-1.697

> <W(PB)>
-3.699

> <W(SA)>
2.002

> <Valence>
12.224

> <Coulomb>
-9.755

> <VdW>
2.062

> <VdW6>
-9.196

> <VdW12>
11.257

> <Bond>
0.216

> <Angle>
2.754

> <Pdih>
9.253

> <Idih>
0.000

> <Tether>
0.000

$$$$
VeraChem MOL file


 22 22  0  0  0  0  0  0  0  0999 V2000     
   20.0139   19.2238   21.0653 C   0  0  0  0  0  0  0  0  0  0  0  0
   20.9515   19.7547   20.8519 H   0  0  0  0  0  0  0  0  0  0  0  0
   19.6603   18.8355   20.1003 H   0  0  0  0  0  0  0  0  0  0  0  0
   18.9400   20.1953   21.6061 C   0  0  0  0  0  0  0  0  0  0  0  0
   18.5022   20.7405   20.7585 H   0  0  0  0  0  0  0  0  0  0  0  0
   18.1090   19.6182   22.0321 H   0  0  0  0  0  0  0  0  0  0  0  0
   19.4385   21.2426   22.6339 C   0  0  0  0  0  0  0  0  0  0  0  0
   18.5885   21.5475   23.2598 H   0  0  0  0  0  0  0  0  0  0  0  0
   19.7386   22.1483   22.0893 H   0  0  0  0  0  0  0  0  0  0  0  0
   20.6241   20.8330   23.5492 C   0  0  0  0  0  0  0  0  0  0  0  0
   21.5611   20.9228   22.9845 H   0  0  0  0  0  0  0  0  0  0  0  0
   20.7017   21.5742   24.3551 H   0  0  0  0  0  0  0  0  0  0  0  0
   20.5649   19.4284   24.1924 C   0  0  0  0  0  0  0  0  0  0  0  0
   21.2192   19.4454   25.0758 H   0  0  0  0  0  0  0  0  0  0  0  0
   21.1013   18.3184   23.2605 C   0  0  0  0  0  0  0  0  0  0  0  0
   22.1230   18.5790   22.9552 H   0  0  0  0  0  0  0  0  0  0  0  0
   21.1947   17.3950   23.8468 H   0  0  0  0  0  0  0  0  0  0  0  0
   20.2621   18.0124   21.9952 C   0  0  0  0  0  0  0  0  0  0  0  0
   20.7898   17.2390   21.4207 H   0  0  0  0  0  0  0  0  0  0  0  0
   19.3029   17.5620   22.2845 H   0  0  0  0  0  0  0  0  0  0  0  0
   19.2413   19.1241   24.6044 O   0  0  0  0  0  0  0  0  0  0  0  0
   18.7113   19.2100   23.7871 H   0  0  0  0  0  0  0  0  0  0  0  0
  1  2  1  0  0  0  0
  1  3  1  0  0  0  0
  1  4  1  0  0  0  0
  4  5  1  0  0  0  0
  4  6  1  0  0  0  0
  4  7  1  0  0  0  0
  7  8  1  0  0  0  0
  7  9  1  0  0  0  0
  7 10  1  0  0  0  0
 10 11  1  0  0  0  0
 10 12  1  0  0  0  0
 10 13  1  0  0  0  0
 13 14  1  0  0  0  0
 13 15  1  0  0  0  0
 15 16  1  0  0  0  0
 15 17  1  0  0  0  0
  1 18  1  0  0  0  0
 15 18  1  0  0  0  0
 18 19  1  0  0  0  0
 18 20  1  0  0  0  0
 13 21  1  0  0  0  0
 21 22  1  0  0  0  0
M  END
> <VM2 Rank>
2

> <Conf_Id>
428

> <Probability>
7.21

> <Sum Probability>
15.50

> <Delta G>
0.083

> <G>
47.470

> <E>
20.456

> <-TS>
27.013

> <U+W>
2.572

> <U>
3.922

> <W>
-1.350

> <W(PB)>
-3.345

> <W(SA)>
1.995

> <Valence>
12.571

> <Coulomb>
-10.581

> <VdW>
1.932

> <VdW6>
-10.483

> <VdW12>
12.414

> <Bond>
0.268

> <Angle>
3.728

> <Pdih>
8.575

> <Idih>
0.000

> <Tether>
0.000

$$$$
VeraChem MOL file


 22 22  0  0  0  0  0  0  0  0999 V2000     
   19.3004   18.9078   21.3658 C   0  0  0  0  0  0  0  0  0  0  0  0
   19.1178   18.5423   20.3458 H   0  0  0  0  0  0  0  0  0  0  0  0
   18.3413   18.7879   21.8863 H   0  0  0  0  0  0  0  0  0  0  0  0
   19.6599   20.4095   21.2942 C   0  0  0  0  0  0  0  0  0  0  0  0
   20.7086   20.5482   20.9982 H   0  0  0  0  0  0  0  0  0  0  0  0
   19.0578   20.8613   20.4940 H   0  0  0  0  0  0  0  0  0  0  0  0
   19.3479   21.1729   22.6033 C   0  0  0  0  0  0  0  0  0  0  0  0
   18.3302   20.9340   22.9405 H   0  0  0  0  0  0  0  0  0  0  0  0
   19.3403   22.2488   22.3816 H   0  0  0  0  0  0  0  0  0  0  0  0
   20.3531   20.9338   23.7571 C   0  0  0  0  0  0  0  0  0  0  0  0
   21.3251   21.3597   23.4760 H   0  0  0  0  0  0  0  0  0  0  0  0
   20.0207   21.5081   24.6317 H   0  0  0  0  0  0  0  0  0  0  0  0
   20.5637   19.4670   24.1958 C   0  0  0  0  0  0  0  0  0  0  0  0
   21.2229   19.4898   25.0754 H   0  0  0  0  0  0  0  0  0  0  0  0
   21.2669   18.6125   23.1163 C   0  0  0  0  0  0  0  0  0  0  0  0
   22.0517   19.2173   22.6439 H   0  0  0  0  0  0  0  0  0  0  0  0
   21.7982   17.7951   23.6208 H   0  0  0  0  0  0  0  0  0  0  0  0
   20.3706   17.9911   22.0109 C   0  0  0  0  0  0  0  0  0  0  0  0
   21.0335   17.6194   21.2176 H   0  0  0  0  0  0  0  0  0  0  0  0
   19.8688   17.0999   22.4124 H   0  0  0  0  0  0  0  0  0  0  0  0
   19.3234   18.8835   24.5638 O   0  0  0  0  0  0  0  0  0  0  0  0
   18.8299   18.8213   23.7219 H   0  0  0  0  0  0  0  0  0  0  0  0
  1  2  1  0  0  0  0
  1  3  1  0  0  0  0
  1  4  1  0  0  0  0
  4  5  1  0  0  0  0
  4  6  1  0  0  0  0
  4  7  1  0  0  0  0
  7  8  1  0  0  0  0
  7  9  1  0  0  0  0
  7 10  1  0  0  0  0
 10 11  1  0  0  0  0
 10 12  1  0  0  0  0
 10 13  1  0  0  0  0
 13 14  1  0  0  0  0
 13 15  1  0  0  0  0
 15 16  1  0  0  0  0
 15 17  1  0  0  0  0
  1 18  1  0  0  0  0
 15 18  1  0  0  0  0
 18 19  1  0  0  0  0
 18 20  1  0  0  0  0
 13 21  1  0  0  0  0
 21 22  1  0  0  0  0
M  END
> <VM2 Rank>
3

> <Conf_Id>
451

> <Probability>
6.88

> <Sum Probability>
22.38

> <Delta G>
0.111

> <G>
47.498

> <E>
20.485

> <-TS>
27.013

> <U+W>
2.600

> <U>
3.922

> <W>
-1.322

> <W(PB)>
-3.302

> <W(SA)>
1.980

> <Valence>
12.571

> <Coulomb>
-10.581

> <VdW>
1.932

> <VdW6>
-10.483

> <VdW12>
12.414

> <Bond>
0.268

> <Angle>
3.728

> <Pdih>
8.575

> <Idih>
0.000

> <Tether>
0.000

$$$$
VeraChem MOL file


 22 22  0  0  0  0  0  0  0  0999 V2000     
   19.9267   19.0985   20.8393 C   0  0  0  0  0  0  0  0  0  0  0  0
   20.4382   18.9717   19.8753 H   0  0  0  0  0  0  0  0  0  0  0  0
   18.8786   18.8228   20.6596 H   0  0  0  0  0  0  0  0  0  0  0  0
   20.0027   20.5899   21.2456 C   0  0  0  0  0  0  0  0  0  0  0  0
   21.0340   20.8784   21.4900 H   0  0  0  0  0  0  0  0  0  0  0  0
   19.7193   21.1890   20.3693 H   0  0  0  0  0  0  0  0  0  0  0  0
   19.0393   20.9481   22.4012 C   0  0  0  0  0  0  0  0  0  0  0  0
   18.1081   20.3759   22.2912 H   0  0  0  0  0  0  0  0  0  0  0  0
   18.7484   22.0034   22.3086 H   0  0  0  0  0  0  0  0  0  0  0  0
   19.6150   20.7332   23.8231 C   0  0  0  0  0  0  0  0  0  0  0  0
   20.2131   21.6129   24.0942 H   0  0  0  0  0  0  0  0  0  0  0  0
   18.7748   20.7083   24.5301 H   0  0  0  0  0  0  0  0  0  0  0  0
   20.4976   19.4805   24.0298 C   0  0  0  0  0  0  0  0  0  0  0  0
   21.5126   19.7069   23.6730 H   0  0  0  0  0  0  0  0  0  0  0  0
   20.0024   18.2156   23.2942 C   0  0  0  0  0  0  0  0  0  0  0  0
   20.3477   17.3325   23.8483 H   0  0  0  0  0  0  0  0  0  0  0  0
   18.9058   18.1711   23.2992 H   0  0  0  0  0  0  0  0  0  0  0  0
   20.5498   18.1081   21.8498 C   0  0  0  0  0  0  0  0  0  0  0  0
   21.6407   18.2374   21.8623 H   0  0  0  0  0  0  0  0  0  0  0  0
   20.3733   17.0878   21.4831 H   0  0  0  0  0  0  0  0  0  0  0  0
   20.5523   19.2040   25.4241 O   0  0  0  0  0  0  0  0  0  0  0  0
   20.9149   20.0053   25.8568 H   0  0  0  0  0  0  0  0  0  0  0  0
  1  2  1  0  0  0  0
  1  3  1  0  0  0  0
  1  4  1  0  0  0  0
  4  5  1  0  0  0  0
  4  6  1  0  0  0  0
  4  7  1  0  0  0  0
  7  8  1  0  0  0  0
  7  9  1  0  0  0  0
  7 10  1  0  0  0  0
 10 11  1  0  0  0  0
 10 12  1  0  0  0  0
 10 13  1  0  0  0  0
 13 14  1  0  0  0  0
 13 15  1  0  0  0  0
 15 16  1  0  0  0  0
 15 17  1  0  0  0  0
  1 18  1  0  0  0  0
 15 18  1  0  0  0  0
 18 19  1  0  0  0  0
 18 20  1  0  0  0  0
 13 21  1  0  0  0  0
 21 22  1  0  0  0  0
M  END
> <VM2 Rank>
4

> <Conf_Id>
501

> <Probability>
5.53

> <Sum Probability>
27.91

> <Delta G>
0.241

> <G>
47.628

> <E>
20.970

> <-TS>
26.657

> <U+W>
3.085

> <U>
5.433

> <W>
-2.348

> <W(PB)>
-4.357

> <W(SA)>
2.010

> <Valence>
11.903

> <Coulomb>
-8.719

> <VdW>
2.250

> <VdW6>
-8.926

> <VdW12>
11.175

> <Bond>
0.223

> <Angle>
2.471

> <Pdih>
9.209

> <Idih>
0.000

> <Tether>
0.000

$$$$
VeraChem MOL file


 22 22  0  0  0  0  0  0  0  0999 V2000     
   20.4697   19.2899   21.0088 C   0  0  0  0  0  0  0  0  0  0  0  0
   21.4940   19.5818   21.2774 H   0  0  0  0  0  0  0  0  0  0  0  0
   20.5107   18.9692   19.9589 H   0  0  0  0  0  0  0  0  0  0  0  0
   19.5092   20.5005   21.0929 C   0  0  0  0  0  0  0  0  0  0  0  0
   19.7666   21.2079   20.2927 H   0  0  0  0  0  0  0  0  0  0  0  0
   18.4842   20.1679   20.8789 H   0  0  0  0  0  0  0  0  0  0  0  0
   19.5286   21.2645   22.4367 C   0  0  0  0  0  0  0  0  0  0  0  0
   18.7628   22.0510   22.3951 H   0  0  0  0  0  0  0  0  0  0  0  0
   20.4889   21.7869   22.5458 H   0  0  0  0  0  0  0  0  0  0  0  0
   19.2727   20.3917   23.6898 C   0  0  0  0  0  0  0  0  0  0  0  0
   19.0894   21.0679   24.5356 H   0  0  0  0  0  0  0  0  0  0  0  0
   18.3584   19.7966   23.5696 H   0  0  0  0  0  0  0  0  0  0  0  0
   20.4706   19.4814   24.0405 C   0  0  0  0  0  0  0  0  0  0  0  0
   21.3935   20.0101   23.7619 H   0  0  0  0  0  0  0  0  0  0  0  0
   20.4625   18.1055   23.3351 C   0  0  0  0  0  0  0  0  0  0  0  0
   21.4802   17.6972   23.3853 H   0  0  0  0  0  0  0  0  0  0  0  0
   19.8283   17.4093   23.9005 H   0  0  0  0  0  0  0  0  0  0  0  0
   19.9966   18.0870   21.8579 C   0  0  0  0  0  0  0  0  0  0  0  0
   20.3638   17.1594   21.3977 H   0  0  0  0  0  0  0  0  0  0  0  0
   18.9008   18.0205   21.8187 H   0  0  0  0  0  0  0  0  0  0  0  0
   20.4761   19.2576   25.4452 O   0  0  0  0  0  0  0  0  0  0  0  0
   21.2716   18.7200   25.6423 H   0  0  0  0  0  0  0  0  0  0  0  0
  1  2  1  0  0  0  0
  1  3  1  0  0  0  0
  1  4  1  0  0  0  0
  4  5  1  0  0  0  0
  4  6  1  0  0  0  0
  4  7  1  0  0  0  0
  7  8  1  0  0  0  0
  7  9  1  0  0  0  0
  7 10  1  0  0  0  0
 10 11  1  0  0  0  0
 10 12  1  0  0  0  0
 10 13  1  0  0  0  0
 13 14  1  0  0  0  0
 13 15  1  0  0  0  0
 15 16  1  0  0  0  0
 15 17  1  0  0  0  0
  1 18  1  0  0  0  0
 15 18  1  0  0  0  0
 18 19  1  0  0  0  0
 18 20  1  0  0  0  0
 13 21  1  0  0  0  0
 21 22  1  0  0  0  0
M  END
> <VM2 Rank>
5

> <Conf_Id>
94

> <Probability>
5.30

> <Sum Probability>
33.21

> <Delta G>
0.267

> <G>
47.654

> <E>
20.996

> <-TS>
26.657

> <U+W>
3.111

> <U>
5.433

> <W>
-2.322

> <W(PB)>
-4.348

> <W(SA)>
2.026

> <Valence>
11.903

> <Coulomb>
-8.719

> <VdW>
2.250

> <VdW6>
-8.926

> <VdW12>
11.175

> <Bond>
0.223

> <Angle>
2.471

> <Pdih>
9.209

> <Idih>
0.000

> <Tether>
0.000

$$$$
VeraChem MOL file


 22 22  0  0  0  0  0  0  0  0999 V2000     
   19.9282   19.0991   20.8399 C   0  0  0  0  0  0  0  0  0  0  0  0
   20.4404   18.9726   19.8764 H   0  0  0  0  0  0  0  0  0  0  0  0
   18.8801   18.8239   20.6591 H   0  0  0  0  0  0  0  0  0  0  0  0
   20.0042   20.5906   21.2466 C   0  0  0  0  0  0  0  0  0  0  0  0
   21.0352   20.8785   21.4929 H   0  0  0  0  0  0  0  0  0  0  0  0
   19.7227   21.1898   20.3699 H   0  0  0  0  0  0  0  0  0  0  0  0
   19.0391   20.9497   22.4006 C   0  0  0  0  0  0  0  0  0  0  0  0
   18.1064   20.3805   22.2871 H   0  0  0  0  0  0  0  0  0  0  0  0
   18.7516   22.0060   22.3096 H   0  0  0  0  0  0  0  0  0  0  0  0
   19.6103   20.7299   23.8237 C   0  0  0  0  0  0  0  0  0  0  0  0
   20.2063   21.6081   24.1037 H   0  0  0  0  0  0  0  0  0  0  0  0
   18.7699   20.6992   24.5300 H   0  0  0  0  0  0  0  0  0  0  0  0
   20.4965   19.4801   24.0287 C   0  0  0  0  0  0  0  0  0  0  0  0
   21.5091   19.7126   23.6690 H   0  0  0  0  0  0  0  0  0  0  0  0
   20.0008   18.2144   23.2939 C   0  0  0  0  0  0  0  0  0  0  0  0
   20.3397   17.3269   23.8444 H   0  0  0  0  0  0  0  0  0  0  0  0
   18.9038   18.1740   23.2949 H   0  0  0  0  0  0  0  0  0  0  0  0
   20.5500   18.1077   21.8503 C   0  0  0  0  0  0  0  0  0  0  0  0
   21.6410   18.2364   21.8634 H   0  0  0  0  0  0  0  0  0  0  0  0
   20.3731   17.0878   21.4823 H   0  0  0  0  0  0  0  0  0  0  0  0
   20.5569   19.2065   25.4232 O   0  0  0  0  0  0  0  0  0  0  0  0
   21.1821   18.4605   25.5377 H   0  0  0  0  0  0  0  0  0  0  0  0
  1  2  1  0  0  0  0
  1  3  1  0  0  0  0
  1  4  1  0  0  0  0
  4  5  1  0  0  0  0
  4  6  1  0  0  0  0
  4  7  1  0  0  0  0
  7  8  1  0  0  0  0
  7  9  1  0  0  0  0
  7 10  1  0  0  0  0
 10 11  1  0  0  0  0
 10 12  1  0  0  0  0
 10 13  1  0  0  0  0
 13 14  1  0  0  0  0
 13 15  1  0  0  0  0
 15 16  1  0  0  0  0
 15 17  1  0  0  0  0
  1 18  1  0  0  0  0
 15 18  1  0  0  0  0
 18 19  1  0  0  0  0
 18 20  1  0  0  0  0
 13 21  1  0  0  0  0
 21 22  1  0  0  0  0
M  END
> <VM2 Rank>
6

> <Conf_Id>
810

> <Probability>
5.22

> <Sum Probability>
38.43

> <Delta G>
0.276

> <G>
47.662

> <E>
20.999

> <-TS>
26.663

> <U+W>
3.114

> <U>
5.411

> <W>
-2.297

> <W(PB)>
-4.300

> <W(SA)>
2.003

> <Valence>
11.909

> <Coulomb>
-8.733

> <VdW>
2.236

> <VdW6>
-8.936

> <VdW12>
11.172

> <Bond>
0.223

> <Angle>
2.457

> <Pdih>
9.228

> <Idih>
0.000

> <Tether>
0.000

$$$$
VeraChem MOL file


 22 22  0  0  0  0  0  0  0  0999 V2000     
   20.4719   19.2905   21.0098 C   0  0  0  0  0  0  0  0  0  0  0  0
   21.4956   19.5826   21.2804 H   0  0  0  0  0  0  0  0  0  0  0  0
   20.5149   18.9710   19.9596 H   0  0  0  0  0  0  0  0  0  0  0  0
   19.5105   20.5006   21.0935 C   0  0  0  0  0  0  0  0  0  0  0  0
   19.7683   21.2083   20.2938 H   0  0  0  0  0  0  0  0  0  0  0  0
   18.4860   20.1673   20.8781 H   0  0  0  0  0  0  0  0  0  0  0  0
   19.5276   21.2646   22.4375 C   0  0  0  0  0  0  0  0  0  0  0  0
   18.7612   22.0504   22.3945 H   0  0  0  0  0  0  0  0  0  0  0  0
   20.4873   21.7878   22.5475 H   0  0  0  0  0  0  0  0  0  0  0  0
   19.2700   20.3911   23.6897 C   0  0  0  0  0  0  0  0  0  0  0  0
   19.0781   21.0679   24.5327 H   0  0  0  0  0  0  0  0  0  0  0  0
   18.3579   19.7935   23.5640 H   0  0  0  0  0  0  0  0  0  0  0  0
   20.4692   19.4816   24.0395 C   0  0  0  0  0  0  0  0  0  0  0  0
   21.3931   20.0060   23.7563 H   0  0  0  0  0  0  0  0  0  0  0  0
   20.4577   18.1053   23.3360 C   0  0  0  0  0  0  0  0  0  0  0  0
   21.4740   17.6947   23.3949 H   0  0  0  0  0  0  0  0  0  0  0  0
   19.8204   17.4130   23.9024 H   0  0  0  0  0  0  0  0  0  0  0  0
   19.9984   18.0860   21.8566 C   0  0  0  0  0  0  0  0  0  0  0  0
   20.3699   17.1594   21.3979 H   0  0  0  0  0  0  0  0  0  0  0  0
   18.9030   18.0169   21.8128 H   0  0  0  0  0  0  0  0  0  0  0  0
   20.4807   19.2584   25.4443 O   0  0  0  0  0  0  0  0  0  0  0  0
   20.5647   20.1377   25.8691 H   0  0  0  0  0  0  0  0  0  0  0  0
  1  2  1  0  0  0  0
  1  3  1  0  0  0  0
  1  4  1  0  0  0  0
  4  5  1  0  0  0  0
  4  6  1  0  0  0  0
  4  7  1  0  0  0  0
  7  8  1  0  0  0  0
  7  9  1  0  0  0  0
  7 10  1  0  0  0  0
 10 11  1  0  0  0  0
 10 12  1  0  0  0  0
 10 13  1  0  0  0  0
 13 14  1  0  0  0  0
 13 15  1  0  0  0  0
 15 16  1  0  0  0  0
 15 17  1  0  0  0  0
  1 18  1  0  0  0  0
 15 18  1  0  0  0  0
 18 19  1  0  0  0  0
 18 20  1  0  0  0  0
 13 21  1  0  0  0  0
 21 22  1  0  0  0  0
M  END
> <VM2 Rank>
7

> <Conf_Id>
530

> <Probability>
5.07

> <Sum Probability>
43.50

> <Delta G>
0.293

> <G>
47.680

> <E>
21.017

> <-TS>
26.663

> <U+W>
3.132

> <U>
5.411

> <W>
-2.279

> <W(PB)>
-4.300

> <W(SA)>
2.021

> <Valence>
11.909

> <Coulomb>
-8.733

> <VdW>
2.236

> <VdW6>
-8.936

> <VdW12>
11.172

> <Bond>
0.223

> <Angle>
2.458

> <Pdih>
9.228

> <Idih>
0.000

> <Tether>
0.000

$$$$
VeraChem MOL file


 22 22  0  0  0  0  0  0  0  0999 V2000     
   19.6894   19.1020   20.9967 C   0  0  0  0  0  0  0  0  0  0  0  0
   19.8183   18.8752   19.9295 H   0  0  0  0  0  0  0  0  0  0  0  0
   18.6301   18.9171   21.2209 H   0  0  0  0  0  0  0  0  0  0  0  0
   20.0473   20.5907   21.2161 C   0  0  0  0  0  0  0  0  0  0  0  0
   21.1369   20.6950   21.3091 H   0  0  0  0  0  0  0  0  0  0  0  0
   19.7745   21.1582   20.3158 H   0  0  0  0  0  0  0  0  0  0  0  0
   19.3556   21.2595   22.4288 C   0  0  0  0  0  0  0  0  0  0  0  0
   18.3514   21.5897   22.1297 H   0  0  0  0  0  0  0  0  0  0  0  0
   19.9092   22.1755   22.6768 H   0  0  0  0  0  0  0  0  0  0  0  0
   19.2175   20.3916   23.7038 C   0  0  0  0  0  0  0  0  0  0  0  0
   19.0207   21.0640   24.5492 H   0  0  0  0  0  0  0  0  0  0  0  0
   18.3239   19.7601   23.6165 H   0  0  0  0  0  0  0  0  0  0  0  0
   20.4390   19.4988   24.0191 C   0  0  0  0  0  0  0  0  0  0  0  0
   21.3613   20.0113   23.7098 H   0  0  0  0  0  0  0  0  0  0  0  0
   20.3571   18.1210   23.3238 C   0  0  0  0  0  0  0  0  0  0  0  0
   21.1008   17.4539   23.7795 H   0  0  0  0  0  0  0  0  0  0  0  0
   19.3791   17.6680   23.5318 H   0  0  0  0  0  0  0  0  0  0  0  0
   20.5997   18.1386   21.7956 C   0  0  0  0  0  0  0  0  0  0  0  0
   21.6522   18.3830   21.5973 H   0  0  0  0  0  0  0  0  0  0  0  0
   20.4521   17.1193   21.4133 H   0  0  0  0  0  0  0  0  0  0  0  0
   20.4803   19.2758   25.4231 O   0  0  0  0  0  0  0  0  0  0  0  0
   20.5894   20.1538   25.8448 H   0  0  0  0  0  0  0  0  0  0  0  0
  1  2  1  0  0  0  0
  1  3  1  0  0  0  0
  1  4  1  0  0  0  0
  4  5  1  0  0  0  0
  4  6  1  0  0  0  0
  4  7  1  0  0  0  0
  7  8  1  0  0  0  0
  7  9  1  0  0  0  0
  7 10  1  0  0  0  0
 10 11  1  0  0  0  0
 10 12  1  0  0  0  0
 10 13  1  0  0  0  0
 13 14  1  0  0  0  0
 13 15  1  0  0  0  0
 15 16  1  0  0  0  0
 15 17  1  0  0  0  0
  1 18  1  0  0  0  0
 15 18  1  0  0  0  0
 18 19  1  0  0  0  0
 18 20  1  0  0  0  0
 13 21  1  0  0  0  0
 21 22  1  0  0  0  0
M  END
> <VM2 Rank>
8

> <Conf_Id>
756

> <Probability>
4.99

> <Sum Probability>
48.49

> <Delta G>
0.302

> <G>
47.689

> <E>
21.017

> <-TS>
26.672

> <U+W>
3.132

> <U>
5.406

> <W>
-2.274

> <W(PB)>
-4.290

> <W(SA)>
2.016

> <Valence>
12.011

> <Coulomb>
-8.863

> <VdW>
2.258

> <VdW6>
-8.944

> <VdW12>
11.203

> <Bond>
0.224

> <Angle>
2.419

> <Pdih>
9.368

> <Idih>
0.000

> <Tether>
0.000

$$$$
VeraChem MOL file


 22 22  0  0  0  0  0  0  0  0999 V2000     
   20.4678   19.2891   21.0078 C   0  0  0  0  0  0  0  0  0  0  0  0
   21.4928   19.5805   21.2746 H   0  0  0  0  0  0  0  0  0  0  0  0
   20.5067   18.9680   19.9579 H   0  0  0  0  0  0  0  0  0  0  0  0
   19.5083   20.5003   21.0934 C   0  0  0  0  0  0  0  0  0  0  0  0
   19.7650   21.2072   20.2926 H   0  0  0  0  0  0  0  0  0  0  0  0
   18.4827   20.1686   20.8814 H   0  0  0  0  0  0  0  0  0  0  0  0
   19.5317   21.2646   22.4369 C   0  0  0  0  0  0  0  0  0  0  0  0
   18.7690   22.0541   22.3952 H   0  0  0  0  0  0  0  0  0  0  0  0
   20.4941   21.7833   22.5453 H   0  0  0  0  0  0  0  0  0  0  0  0
   19.2725   20.3931   23.6901 C   0  0  0  0  0  0  0  0  0  0  0  0
   19.0899   21.0727   24.5334 H   0  0  0  0  0  0  0  0  0  0  0  0
   18.3563   19.8014   23.5662 H   0  0  0  0  0  0  0  0  0  0  0  0
   20.4691   19.4810   24.0414 C   0  0  0  0  0  0  0  0  0  0  0  0
   21.3935   20.0088   23.7670 H   0  0  0  0  0  0  0  0  0  0  0  0
   20.4659   18.1059   23.3341 C   0  0  0  0  0  0  0  0  0  0  0  0
   21.4877   17.7074   23.3823 H   0  0  0  0  0  0  0  0  0  0  0  0
   19.8419   17.4007   23.8988 H   0  0  0  0  0  0  0  0  0  0  0  0
   19.9961   18.0867   21.8582 C   0  0  0  0  0  0  0  0  0  0  0  0
   20.3628   17.1591   21.3977 H   0  0  0  0  0  0  0  0  0  0  0  0
   18.9003   18.0200   21.8211 H   0  0  0  0  0  0  0  0  0  0  0  0
   20.4746   19.2573   25.4451 O   0  0  0  0  0  0  0  0  0  0  0  0
   19.6261   18.8169   25.6580 H   0  0  0  0  0  0  0  0  0  0  0  0
  1  2  1  0  0  0  0
  1  3  1  0  0  0  0
  1  4  1  0  0  0  0
  4  5  1  0  0  0  0
  4  6  1  0  0  0  0
  4  7  1  0  0  0  0
  7  8  1  0  0  0  0
  7  9  1  0  0  0  0
  7 10  1  0  0  0  0
 10 11  1  0  0  0  0
 10 12  1  0  0  0  0
 10 13  1  0  0  0  0
 13 14  1  0  0  0  0
 13 15  1  0  0  0  0
 15 16  1  0  0  0  0
 15 17  1  0  0  0  0
  1 18  1  0  0  0  0
 15 18  1  0  0  0  0
 18 19  1  0  0  0  0
 18 20  1  0  0  0  0
 13 21  1  0  0  0  0
 21 22  1  0  0  0  0
M  END
> <VM2 Rank>
9

> <Conf_Id>
536

> <Probability>
4.62

> <Sum Probability>
53.12

> <Delta G>
0.348

> <G>
47.735

> <E>
21.108

> <-TS>
26.627

> <U+W>
3.223

> <U>
5.233

> <W>
-2.010

> <W(PB)>
-4.024

> <W(SA)>
2.014

> <Valence>
12.274

> <Coulomb>
-9.233

> <VdW>
2.191

> <VdW6>
-8.952

> <VdW12>
11.143

> <Bond>
0.217

> <Angle>
2.514

> <Pdih>
9.543

> <Idih>
0.000

> <Tether>
0.000

$$$$
VeraChem MOL file


 22 22  0  0  0  0  0  0  0  0999 V2000     
   19.6887   19.1018   20.9969 C   0  0  0  0  0  0  0  0  0  0  0  0
   19.8165   18.8745   19.9297 H   0  0  0  0  0  0  0  0  0  0  0  0
   18.6297   18.9163   21.2225 H   0  0  0  0  0  0  0  0  0  0  0  0
   20.0459   20.5906   21.2152 C   0  0  0  0  0  0  0  0  0  0  0  0
   21.1355   20.6957   21.3070 H   0  0  0  0  0  0  0  0  0  0  0  0
   19.7717   21.1576   20.3150 H   0  0  0  0  0  0  0  0  0  0  0  0
   19.3553   21.2592   22.4284 C   0  0  0  0  0  0  0  0  0  0  0  0
   18.3503   21.5886   22.1310 H   0  0  0  0  0  0  0  0  0  0  0  0
   19.9086   22.1755   22.6755 H   0  0  0  0  0  0  0  0  0  0  0  0
   19.2201   20.3923   23.7046 C   0  0  0  0  0  0  0  0  0  0  0  0
   19.0331   21.0650   24.5523 H   0  0  0  0  0  0  0  0  0  0  0  0
   18.3240   19.7637   23.6239 H   0  0  0  0  0  0  0  0  0  0  0  0
   20.4402   19.4981   24.0195 C   0  0  0  0  0  0  0  0  0  0  0  0
   21.3614   20.0139   23.7124 H   0  0  0  0  0  0  0  0  0  0  0  0
   20.3576   18.1203   23.3232 C   0  0  0  0  0  0  0  0  0  0  0  0
   21.0988   17.4477   23.7743 H   0  0  0  0  0  0  0  0  0  0  0  0
   19.3777   17.6696   23.5284 H   0  0  0  0  0  0  0  0  0  0  0  0
   20.6005   18.1394   21.7952 C   0  0  0  0  0  0  0  0  0  0  0  0
   20.4540   17.1203   21.4121 H   0  0  0  0  0  0  0  0  0  0  0  0
   21.6527   18.3852   21.5966 H   0  0  0  0  0  0  0  0  0  0  0  0
   20.4778   19.2763   25.4240 O   0  0  0  0  0  0  0  0  0  0  0  0
   21.2842   18.7497   25.6055 H   0  0  0  0  0  0  0  0  0  0  0  0
  1  2  1  0  0  0  0
  1  3  1  0  0  0  0
  1  4  1  0  0  0  0
  4  5  1  0  0  0  0
  4  6  1  0  0  0  0
  4  7  1  0  0  0  0
  7  8  1  0  0  0  0
  7  9  1  0  0  0  0
  7 10  1  0  0  0  0
 10 11  1  0  0  0  0
 10 12  1  0  0  0  0
 10 13  1  0  0  0  0
 13 14  1  0  0  0  0
 13 15  1  0  0  0  0
 15 16  1  0  0  0  0
 15 17  1  0  0  0  0
  1 18  1  0  0  0  0
 15 18  1  0  0  0  0
 18 19  1  0  0  0  0
 18 20  1  0  0  0  0
 13 21  1  0  0  0  0
 21 22  1  0  0  0  0
M  END
> <VM2 Rank>
10

> <Conf_Id>
552

> <Probability>
4.55

> <Sum Probability>
57.66

> <Delta G>
0.358

> <G>
47.745

> <E>
21.097

> <-TS>
26.648

> <U+W>
3.212

> <U>
5.483

> <W>
-2.271

> <W(PB)>
-4.291

> <W(SA)>
2.020

> <Valence>
12.019

> <Coulomb>
-8.787

> <VdW>
2.252

> <VdW6>
-8.934

> <VdW12>
11.185

> <Bond>
0.223

> <Angle>
2.429

> <Pdih>
9.367

> <Idih>
0.000

> <Tether>
0.000

$$$$
VeraChem MOL file


 22 22  0  0  0  0  0  0  0  0999 V2000     
   19.6893   19.1015   20.9972 C   0  0  0  0  0  0  0  0  0  0  0  0
   19.8180   18.8744   19.9300 H   0  0  0  0  0  0  0  0  0  0  0  0
   18.6302   18.9158   21.2218 H   0  0  0  0  0  0  0  0  0  0  0  0
   20.0462   20.5904   21.2158 C   0  0  0  0  0  0  0  0  0  0  0  0
   21.1359   20.6954   21.3077 H   0  0  0  0  0  0  0  0  0  0  0  0
   19.7723   21.1574   20.3155 H   0  0  0  0  0  0  0  0  0  0  0  0
   19.3558   21.2596   22.4288 C   0  0  0  0  0  0  0  0  0  0  0  0
   18.3517   21.5908   22.1307 H   0  0  0  0  0  0  0  0  0  0  0  0
   19.9105   22.1751   22.6762 H   0  0  0  0  0  0  0  0  0  0  0  0
   19.2186   20.3932   23.7050 C   0  0  0  0  0  0  0  0  0  0  0  0
   19.0324   21.0685   24.5510 H   0  0  0  0  0  0  0  0  0  0  0  0
   18.3209   19.7672   23.6208 H   0  0  0  0  0  0  0  0  0  0  0  0
   20.4382   19.4978   24.0188 C   0  0  0  0  0  0  0  0  0  0  0  0
   21.3606   20.0113   23.7123 H   0  0  0  0  0  0  0  0  0  0  0  0
   20.3562   18.1198   23.3234 C   0  0  0  0  0  0  0  0  0  0  0  0
   21.1002   17.4519   23.7776 H   0  0  0  0  0  0  0  0  0  0  0  0
   19.3775   17.6654   23.5251 H   0  0  0  0  0  0  0  0  0  0  0  0
   20.6011   18.1393   21.7959 C   0  0  0  0  0  0  0  0  0  0  0  0
   21.6533   18.3863   21.5991 H   0  0  0  0  0  0  0  0  0  0  0  0
   20.4563   17.1202   21.4122 H   0  0  0  0  0  0  0  0  0  0  0  0
   20.4806   19.2764   25.4221 O   0  0  0  0  0  0  0  0  0  0  0  0
   19.6456   18.8211   25.6558 H   0  0  0  0  0  0  0  0  0  0  0  0
  1  2  1  0  0  0  0
  1  3  1  0  0  0  0
  1  4  1  0  0  0  0
  4  5  1  0  0  0  0
  4  6  1  0  0  0  0
  4  7  1  0  0  0  0
  7  8  1  0  0  0  0
  7  9  1  0  0  0  0
  7 10  1  0  0  0  0
 10 11  1  0  0  0  0
 10 12  1  0  0  0  0
 10 13  1  0  0  0  0
 13 14  1  0  0  0  0
 13 15  1  0  0  0  0
 15 16  1  0  0  0  0
 15 17  1  0  0  0  0
  1 18  1  0  0  0  0
 15 18  1  0  0  0  0
 18 19  1  0  0  0  0
 18 20  1  0  0  0  0
 13 21  1  0  0  0  0
 21 22  1  0  0  0  0
M  END
> <VM2 Rank>
11

> <Conf_Id>
788

> <Probability>
4.39

> <Sum Probability>
62.05

> <Delta G>
0.379

> <G>
47.766

> <E>
21.133

> <-TS>
26.633

> <U+W>
3.248

> <U>
5.336

> <W>
-2.088

> <W(PB)>
-4.098

> <W(SA)>
2.010

> <Valence>
12.390

> <Coulomb>
-9.270

> <VdW>
2.216

> <VdW6>
-8.967

> <VdW12>
11.183

> <Bond>
0.218

> <Angle>
2.427

> <Pdih>
9.745

> <Idih>
0.000

> <Tether>
0.000

$$$$
VeraChem MOL file


 22 22  0  0  0  0  0  0  0  0999 V2000     
   19.6929   18.9870   20.9446 C   0  0  0  0  0  0  0  0  0  0  0  0
   20.4047   18.7580   20.1396 H   0  0  0  0  0  0  0  0  0  0  0  0
   18.7010   18.7394   20.5425 H   0  0  0  0  0  0  0  0  0  0  0  0
   19.7570   20.5074   21.2228 C   0  0  0  0  0  0  0  0  0  0  0  0
   20.7960   20.8527   21.1346 H   0  0  0  0  0  0  0  0  0  0  0  0
   19.2086   21.0214   20.4216 H   0  0  0  0  0  0  0  0  0  0  0  0
   19.1811   20.9495   22.5873 C   0  0  0  0  0  0  0  0  0  0  0  0
   18.2912   20.3613   22.8473 H   0  0  0  0  0  0  0  0  0  0  0  0
   18.8382   21.9885   22.4892 H   0  0  0  0  0  0  0  0  0  0  0  0
   20.2359   20.9095   23.7222 C   0  0  0  0  0  0  0  0  0  0  0  0
   21.1331   21.4529   23.3988 H   0  0  0  0  0  0  0  0  0  0  0  0
   19.8485   21.4707   24.5829 H   0  0  0  0  0  0  0  0  0  0  0  0
   20.6572   19.5075   24.2144 C   0  0  0  0  0  0  0  0  0  0  0  0
   21.5164   19.6474   24.8861 H   0  0  0  0  0  0  0  0  0  0  0  0
   21.0974   18.5215   23.1040 C   0  0  0  0  0  0  0  0  0  0  0  0
   21.9260   18.9540   22.5286 H   0  0  0  0  0  0  0  0  0  0  0  0
   21.5124   17.6360   23.6029 H   0  0  0  0  0  0  0  0  0  0  0  0
   19.9728   18.0504   22.1441 C   0  0  0  0  0  0  0  0  0  0  0  0
   19.0425   17.8789   22.6995 H   0  0  0  0  0  0  0  0  0  0  0  0
   20.2485   17.0665   21.7408 H   0  0  0  0  0  0  0  0  0  0  0  0
   19.5917   18.9453   24.9676 O   0  0  0  0  0  0  0  0  0  0  0  0
   18.8396   18.8872   24.3458 H   0  0  0  0  0  0  0  0  0  0  0  0
  1  2  1  0  0  0  0
  1  3  1  0  0  0  0
  1  4  1  0  0  0  0
  4  5  1  0  0  0  0
  4  6  1  0  0  0  0
  4  7  1  0  0  0  0
  7  8  1  0  0  0  0
  7  9  1  0  0  0  0
  7 10  1  0  0  0  0
 10 11  1  0  0  0  0
 10 12  1  0  0  0  0
 10 13  1  0  0  0  0
 13 14  1  0  0  0  0
 13 15  1  0  0  0  0
 15 16  1  0  0  0  0
 15 17  1  0  0  0  0
  1 18  1  0  0  0  0
 15 18  1  0  0  0  0
 18 19  1  0  0  0  0
 18 20  1  0  0  0  0
 13 21  1  0  0  0  0
 21 22  1  0  0  0  0
M  END
> <VM2 Rank>
12

> <Conf_Id>
457

> <Probability>
4.27

> <Sum Probability>
66.31

> <Delta G>
0.396

> <G>
47.783

> <E>
21.066

> <-TS>
26.717

> <U+W>
3.181

> <U>
4.701

> <W>
-1.520

> <W(PB)>
-3.523

> <W(SA)>
2.003

> <Valence>
12.586

> <Coulomb>
-9.999

> <VdW>
2.114

> <VdW6>
-9.790

> <VdW12>
11.904

> <Bond>
0.257

> <Angle>
3.349

> <Pdih>
8.980

> <Idih>
0.000

> <Tether>
0.000

$$$$
VeraChem MOL file


 22 22  0  0  0  0  0  0  0  0999 V2000     
   19.7089   19.0201   20.9141 C   0  0  0  0  0  0  0  0  0  0  0  0
   19.9917   18.8871   19.8610 H   0  0  0  0  0  0  0  0  0  0  0  0
   18.7540   18.4912   21.0368 H   0  0  0  0  0  0  0  0  0  0  0  0
   19.4944   20.5296   21.1687 C   0  0  0  0  0  0  0  0  0  0  0  0
   20.3846   21.0845   20.8426 H   0  0  0  0  0  0  0  0  0  0  0  0
   18.6747   20.8728   20.5229 H   0  0  0  0  0  0  0  0  0  0  0  0
   19.1595   20.9058   22.6316 C   0  0  0  0  0  0  0  0  0  0  0  0
   18.3117   20.3145   23.0041 H   0  0  0  0  0  0  0  0  0  0  0  0
   18.8290   21.9533   22.6415 H   0  0  0  0  0  0  0  0  0  0  0  0
   20.3768   20.7763   23.5792 C   0  0  0  0  0  0  0  0  0  0  0  0
   21.2879   21.0717   23.0430 H   0  0  0  0  0  0  0  0  0  0  0  0
   20.2720   21.5073   24.3917 H   0  0  0  0  0  0  0  0  0  0  0  0
   20.5906   19.3765   24.2028 C   0  0  0  0  0  0  0  0  0  0  0  0
   21.6386   19.3256   24.5320 H   0  0  0  0  0  0  0  0  0  0  0  0
   20.3273   18.1718   23.2700 C   0  0  0  0  0  0  0  0  0  0  0  0
   20.8488   17.3056   23.6972 H   0  0  0  0  0  0  0  0  0  0  0  0
   19.2601   17.9138   23.2894 H   0  0  0  0  0  0  0  0  0  0  0  0
   20.7853   18.3514   21.8020 C   0  0  0  0  0  0  0  0  0  0  0  0
   21.7336   18.9035   21.7513 H   0  0  0  0  0  0  0  0  0  0  0  0
   20.9899   17.3556   21.3858 H   0  0  0  0  0  0  0  0  0  0  0  0
   19.7432   19.2464   25.3386 O   0  0  0  0  0  0  0  0  0  0  0  0
   19.9433   20.0023   25.9286 H   0  0  0  0  0  0  0  0  0  0  0  0
  1  2  1  0  0  0  0
  1  3  1  0  0  0  0
  1  4  1  0  0  0  0
  4  5  1  0  0  0  0
  4  6  1  0  0  0  0
  4  7  1  0  0  0  0
  7  8  1  0  0  0  0
  7  9  1  0  0  0  0
  7 10  1  0  0  0  0
 10 11  1  0  0  0  0
 10 12  1  0  0  0  0
 10 13  1  0  0  0  0
 13 14  1  0  0  0  0
 13 15  1  0  0  0  0
 15 16  1  0  0  0  0
 15 17  1  0  0  0  0
  1 18  1  0  0  0  0
 15 18  1  0  0  0  0
 18 19  1  0  0  0  0
 18 20  1  0  0  0  0
 13 21  1  0  0  0  0
 21 22  1  0  0  0  0
M  END
> <VM2 Rank>
13

> <Conf_Id>
802

> <Probability>
4.23

> <Sum Probability>
70.54

> <Delta G>
0.401

> <G>
47.788

> <E>
21.137

> <-TS>
26.651

> <U+W>
3.252

> <U>
5.651

> <W>
-2.399

> <W(PB)>
-4.407

> <W(SA)>
2.008

> <Valence>
11.811

> <Coulomb>
-8.308

> <VdW>
2.148

> <VdW6>
-9.144

> <VdW12>
11.292

> <Bond>
0.225

> <Angle>
2.645

> <Pdih>
8.941

> <Idih>
0.000

> <Tether>
0.000

$$$$
VeraChem MOL file


 22 22  0  0  0  0  0  0  0  0999 V2000     
   19.9197   19.0486   20.8994 C   0  0  0  0  0  0  0  0  0  0  0  0
   20.9334   19.1735   20.4950 H   0  0  0  0  0  0  0  0  0  0  0  0
   19.3374   18.5649   20.1033 H   0  0  0  0  0  0  0  0  0  0  0  0
   19.3012   20.4387   21.1722 C   0  0  0  0  0  0  0  0  0  0  0  0
   19.3749   21.0331   20.2513 H   0  0  0  0  0  0  0  0  0  0  0  0
   18.2266   20.3262   21.3707 H   0  0  0  0  0  0  0  0  0  0  0  0
   19.9572   21.2338   22.3262 C   0  0  0  0  0  0  0  0  0  0  0  0
   19.5797   22.2643   22.2785 H   0  0  0  0  0  0  0  0  0  0  0  0
   21.0448   21.3010   22.1872 H   0  0  0  0  0  0  0  0  0  0  0  0
   19.6121   20.6618   23.7228 C   0  0  0  0  0  0  0  0  0  0  0  0
   19.6505   21.4777   24.4559 H   0  0  0  0  0  0  0  0  0  0  0  0
   18.5718   20.3103   23.7254 H   0  0  0  0  0  0  0  0  0  0  0  0
   20.5443   19.5381   24.2322 C   0  0  0  0  0  0  0  0  0  0  0  0
   21.4419   20.0109   24.6565 H   0  0  0  0  0  0  0  0  0  0  0  0
   21.0246   18.5216   23.1691 C   0  0  0  0  0  0  0  0  0  0  0  0
   21.9027   18.9314   22.6536 H   0  0  0  0  0  0  0  0  0  0  0  0
   21.3878   17.6233   23.6852 H   0  0  0  0  0  0  0  0  0  0  0  0
   19.9651   18.1009   22.1215 C   0  0  0  0  0  0  0  0  0  0  0  0
   20.2239   17.0971   21.7584 H   0  0  0  0  0  0  0  0  0  0  0  0
   18.9732   18.0117   22.5854 H   0  0  0  0  0  0  0  0  0  0  0  0
   19.8617   18.8346   25.2637 O   0  0  0  0  0  0  0  0  0  0  0  0
   20.4768   18.1459   25.5909 H   0  0  0  0  0  0  0  0  0  0  0  0
  1  2  1  0  0  0  0
  1  3  1  0  0  0  0
  1  4  1  0  0  0  0
  4  5  1  0  0  0  0
  4  6  1  0  0  0  0
  4  7  1  0  0  0  0
  7  8  1  0  0  0  0
  7  9  1  0  0  0  0
  7 10  1  0  0  0  0
 10 11  1  0  0  0  0
 10 12  1  0  0  0  0
 10 13  1  0  0  0  0
 13 14  1  0  0  0  0
 13 15  1  0  0  0  0
 15 16  1  0  0  0  0
 15 17  1  0  0  0  0
  1 18  1  0  0  0  0
 15 18  1  0  0  0  0
 18 19  1  0  0  0  0
 18 20  1  0  0  0  0
 13 21  1  0  0  0  0
 21 22  1  0  0  0  0
M  END
> <VM2 Rank>
14

> <Conf_Id>
757

> <Probability>
4.00

> <Sum Probability>
74.55

> <Delta G>
0.434

> <G>
47.821

> <E>
21.169

> <-TS>
26.651

> <U+W>
3.284

> <U>
5.651

> <W>
-2.366

> <W(PB)>
-4.373

> <W(SA)>
2.007

> <Valence>
11.812

> <Coulomb>
-8.308

> <VdW>
2.147

> <VdW6>
-9.144

> <VdW12>
11.291

> <Bond>
0.225

> <Angle>
2.646

> <Pdih>
8.941

> <Idih>
0.000

> <Tether>
0.000

$$$$
VeraChem MOL file


 22 22  0  0  0  0  0  0  0  0999 V2000     
   19.9275   19.0521   20.8970 C   0  0  0  0  0  0  0  0  0  0  0  0
   20.9447   19.1780   20.5017 H   0  0  0  0  0  0  0  0  0  0  0  0
   19.3522   18.5700   20.0950 H   0  0  0  0  0  0  0  0  0  0  0  0
   19.3063   20.4413   21.1676 C   0  0  0  0  0  0  0  0  0  0  0  0
   19.3869   21.0376   20.2486 H   0  0  0  0  0  0  0  0  0  0  0  0
   18.2303   20.3280   21.3576 H   0  0  0  0  0  0  0  0  0  0  0  0
   19.9536   21.2337   22.3281 C   0  0  0  0  0  0  0  0  0  0  0  0
   19.5740   22.2635   22.2816 H   0  0  0  0  0  0  0  0  0  0  0  0
   21.0417   21.3036   22.1953 H   0  0  0  0  0  0  0  0  0  0  0  0
   19.6025   20.6557   23.7205 C   0  0  0  0  0  0  0  0  0  0  0  0
   19.6293   21.4728   24.4531 H   0  0  0  0  0  0  0  0  0  0  0  0
   18.5650   20.2954   23.7127 H   0  0  0  0  0  0  0  0  0  0  0  0
   20.5427   19.5389   24.2306 C   0  0  0  0  0  0  0  0  0  0  0  0
   21.4434   20.0159   24.6435 H   0  0  0  0  0  0  0  0  0  0  0  0
   21.0179   18.5151   23.1725 C   0  0  0  0  0  0  0  0  0  0  0  0
   21.9063   18.9108   22.6641 H   0  0  0  0  0  0  0  0  0  0  0  0
   21.3623   17.6154   23.6997 H   0  0  0  0  0  0  0  0  0  0  0  0
   19.9627   18.1018   22.1175 C   0  0  0  0  0  0  0  0  0  0  0  0
   20.2201   17.0978   21.7540 H   0  0  0  0  0  0  0  0  0  0  0  0
   18.9682   18.0144   22.5762 H   0  0  0  0  0  0  0  0  0  0  0  0
   19.8729   18.8395   25.2731 O   0  0  0  0  0  0  0  0  0  0  0  0
   19.6254   19.5067   25.9466 H   0  0  0  0  0  0  0  0  0  0  0  0
  1  2  1  0  0  0  0
  1  3  1  0  0  0  0
  1  4  1  0  0  0  0
  4  5  1  0  0  0  0
  4  6  1  0  0  0  0
  4  7  1  0  0  0  0
  7  8  1  0  0  0  0
  7  9  1  0  0  0  0
  7 10  1  0  0  0  0
 10 11  1  0  0  0  0
 10 12  1  0  0  0  0
 10 13  1  0  0  0  0
 13 14  1  0  0  0  0
 13 15  1  0  0  0  0
 15 16  1  0  0  0  0
 15 17  1  0  0  0  0
  1 18  1  0  0  0  0
 15 18  1  0  0  0  0
 18 19  1  0  0  0  0
 18 20  1  0  0  0  0
 13 21  1  0  0  0  0
 21 22  1  0  0  0  0
M  END
> <VM2 Rank>
15

> <Conf_Id>
471

> <Probability>
3.89

> <Sum Probability>
78.43

> <Delta G>
0.452

> <G>
47.838

> <E>
21.157

> <-TS>
26.682

> <U+W>
3.272

> <U>
5.678

> <W>
-2.407

> <W(PB)>
-4.420

> <W(SA)>
2.013

> <Valence>
11.807

> <Coulomb>
-8.278

> <VdW>
2.149

> <VdW6>
-9.114

> <VdW12>
11.263

> <Bond>
0.224

> <Angle>
2.649

> <Pdih>
8.934

> <Idih>
0.000

> <Tether>
0.000

$$$$
VeraChem MOL file


 22 22  0  0  0  0  0  0  0  0999 V2000     
   19.7140   19.0215   20.9097 C   0  0  0  0  0  0  0  0  0  0  0  0
   20.0035   18.8900   19.8582 H   0  0  0  0  0  0  0  0  0  0  0  0
   18.7571   18.4942   21.0249 H   0  0  0  0  0  0  0  0  0  0  0  0
   19.5011   20.5308   21.1661 C   0  0  0  0  0  0  0  0  0  0  0  0
   20.3949   21.0845   20.8480 H   0  0  0  0  0  0  0  0  0  0  0  0
   18.6869   20.8772   20.5150 H   0  0  0  0  0  0  0  0  0  0  0  0
   19.1560   20.9043   22.6273 C   0  0  0  0  0  0  0  0  0  0  0  0
   18.3073   20.3112   22.9946 H   0  0  0  0  0  0  0  0  0  0  0  0
   18.8233   21.9510   22.6367 H   0  0  0  0  0  0  0  0  0  0  0  0
   20.3672   20.7774   23.5835 C   0  0  0  0  0  0  0  0  0  0  0  0
   21.2799   21.0878   23.0592 H   0  0  0  0  0  0  0  0  0  0  0  0
   20.2462   21.4961   24.4050 H   0  0  0  0  0  0  0  0  0  0  0  0
   20.5901   19.3764   24.2008 C   0  0  0  0  0  0  0  0  0  0  0  0
   21.6420   19.3286   24.5178 H   0  0  0  0  0  0  0  0  0  0  0  0
   20.3173   18.1727   23.2691 C   0  0  0  0  0  0  0  0  0  0  0  0
   20.8305   17.3005   23.6943 H   0  0  0  0  0  0  0  0  0  0  0  0
   19.2473   17.9256   23.2823 H   0  0  0  0  0  0  0  0  0  0  0  0
   20.7831   18.3494   21.8035 C   0  0  0  0  0  0  0  0  0  0  0  0
   21.7333   18.8987   21.7573 H   0  0  0  0  0  0  0  0  0  0  0  0
   20.9866   17.3528   21.3885 H   0  0  0  0  0  0  0  0  0  0  0  0
   19.7573   19.2455   25.3471 O   0  0  0  0  0  0  0  0  0  0  0  0
   19.9539   18.3697   25.7400 H   0  0  0  0  0  0  0  0  0  0  0  0
  1  2  1  0  0  0  0
  1  3  1  0  0  0  0
  1  4  1  0  0  0  0
  4  5  1  0  0  0  0
  4  6  1  0  0  0  0
  4  7  1  0  0  0  0
  7  8  1  0  0  0  0
  7  9  1  0  0  0  0
  7 10  1  0  0  0  0
 10 11  1  0  0  0  0
 10 12  1  0  0  0  0
 10 13  1  0  0  0  0
 13 14  1  0  0  0  0
 13 15  1  0  0  0  0
 15 16  1  0  0  0  0
 15 17  1  0  0  0  0
  1 18  1  0  0  0  0
 15 18  1  0  0  0  0
 18 19  1  0  0  0  0
 18 20  1  0  0  0  0
 13 21  1  0  0  0  0
 21 22  1  0  0  0  0
M  END
> <VM2 Rank>
16

> <Conf_Id>
496

> <Probability>
3.85

> <Sum Probability>
82.28

> <Delta G>
0.457

> <G>
47.844

> <E>
21.162

> <-TS>
26.682

> <U+W>
3.277

> <U>
5.678

> <W>
-2.401

> <W(PB)>
-4.416

> <W(SA)>
2.015

> <Valence>
11.807

> <Coulomb>
-8.278

> <VdW>
2.149

> <VdW6>
-9.114

> <VdW12>
11.263

> <Bond>
0.224

> <Angle>
2.649

> <Pdih>
8.934

> <Idih>
0.000

> <Tether>
0.000

$$$$
VeraChem MOL file


 22 22  0  0  0  0  0  0  0  0999 V2000     
   19.9171   19.0707   20.7943 C   0  0  0  0  0  0  0  0  0  0  0  0
   19.1954   18.3665   20.3581 H   0  0  0  0  0  0  0  0  0  0  0  0
   20.5732   19.3745   19.9672 H   0  0  0  0  0  0  0  0  0  0  0  0
   19.1359   20.3083   21.2979 C   0  0  0  0  0  0  0  0  0  0  0  0
   18.8638   20.9157   20.4239 H   0  0  0  0  0  0  0  0  0  0  0  0
   18.1830   19.9866   21.7397 H   0  0  0  0  0  0  0  0  0  0  0  0
   19.8971   21.1971   22.3083 C   0  0  0  0  0  0  0  0  0  0  0  0
   19.4975   22.2176   22.2319 H   0  0  0  0  0  0  0  0  0  0  0  0
   20.9611   21.2658   22.0442 H   0  0  0  0  0  0  0  0  0  0  0  0
   19.7192   20.7297   23.7742 C   0  0  0  0  0  0  0  0  0  0  0  0
   20.0719   21.5317   24.4355 H   0  0  0  0  0  0  0  0  0  0  0  0
   18.6493   20.6071   23.9895 H   0  0  0  0  0  0  0  0  0  0  0  0
   20.4680   19.4328   24.1501 C   0  0  0  0  0  0  0  0  0  0  0  0
   21.5489   19.6268   24.0950 H   0  0  0  0  0  0  0  0  0  0  0  0
   20.1475   18.2174   23.2516 C   0  0  0  0  0  0  0  0  0  0  0  0
   20.5573   17.3230   23.7392 H   0  0  0  0  0  0  0  0  0  0  0  0
   19.0631   18.0612   23.1843 H   0  0  0  0  0  0  0  0  0  0  0  0
   20.7774   18.3238   21.8420 C   0  0  0  0  0  0  0  0  0  0  0  0
   21.7624   18.8042   21.9180 H   0  0  0  0  0  0  0  0  0  0  0  0
   20.9725   17.3119   21.4616 H   0  0  0  0  0  0  0  0  0  0  0  0
   20.1239   19.0981   25.4884 O   0  0  0  0  0  0  0  0  0  0  0  0
   20.3800   19.8624   26.0459 H   0  0  0  0  0  0  0  0  0  0  0  0
  1  2  1  0  0  0  0
  1  3  1  0  0  0  0
  1  4  1  0  0  0  0
  4  5  1  0  0  0  0
  4  6  1  0  0  0  0
  4  7  1  0  0  0  0
  7  8  1  0  0  0  0
  7  9  1  0  0  0  0
  7 10  1  0  0  0  0
 10 11  1  0  0  0  0
 10 12  1  0  0  0  0
 10 13  1  0  0  0  0
 13 14  1  0  0  0  0
 13 15  1  0  0  0  0
 15 16  1  0  0  0  0
 15 17  1  0  0  0  0
  1 18  1  0  0  0  0
 15 18  1  0  0  0  0
 18 19  1  0  0  0  0
 18 20  1  0  0  0  0
 13 21  1  0  0  0  0
 21 22  1  0  0  0  0
M  END
> <VM2 Rank>
17

> <Conf_Id>
223

> <Probability>
3.18

> <Sum Probability>
85.46

> <Delta G>
0.571

> <G>
47.958

> <E>
21.387

> <-TS>
26.571

> <U+W>
3.502

> <U>
5.864

> <W>
-2.362

> <W(PB)>
-4.366

> <W(SA)>
2.004

> <Valence>
12.329

> <Coulomb>
-8.532

> <VdW>
2.068

> <VdW6>
-8.866

> <VdW12>
10.934

> <Bond>
0.215

> <Angle>
2.565

> <Pdih>
9.548

> <Idih>
0.000

> <Tether>
0.000

$$$$
VeraChem MOL file


 22 22  0  0  0  0  0  0  0  0999 V2000     
   19.9177   19.0707   20.7950 C   0  0  0  0  0  0  0  0  0  0  0  0
   20.5740   19.3737   19.9677 H   0  0  0  0  0  0  0  0  0  0  0  0
   19.1958   18.3666   20.3590 H   0  0  0  0  0  0  0  0  0  0  0  0
   19.1370   20.3093   21.2973 C   0  0  0  0  0  0  0  0  0  0  0  0
   18.8675   20.9171   20.4227 H   0  0  0  0  0  0  0  0  0  0  0  0
   18.1826   19.9889   21.7367 H   0  0  0  0  0  0  0  0  0  0  0  0
   19.8972   21.1976   22.3090 C   0  0  0  0  0  0  0  0  0  0  0  0
   19.4985   22.2184   22.2326 H   0  0  0  0  0  0  0  0  0  0  0  0
   20.9618   21.2655   22.0467 H   0  0  0  0  0  0  0  0  0  0  0  0
   19.7167   20.7292   23.7741 C   0  0  0  0  0  0  0  0  0  0  0  0
   20.0727   21.5274   24.4387 H   0  0  0  0  0  0  0  0  0  0  0  0
   18.6462   20.6123   23.9876 H   0  0  0  0  0  0  0  0  0  0  0  0
   20.4654   19.4322   24.1491 C   0  0  0  0  0  0  0  0  0  0  0  0
   21.5456   19.6287   24.0945 H   0  0  0  0  0  0  0  0  0  0  0  0
   20.1467   18.2154   23.2514 C   0  0  0  0  0  0  0  0  0  0  0  0
   20.5595   17.3214   23.7377 H   0  0  0  0  0  0  0  0  0  0  0  0
   19.0631   18.0557   23.1787 H   0  0  0  0  0  0  0  0  0  0  0  0
   20.7779   18.3241   21.8428 C   0  0  0  0  0  0  0  0  0  0  0  0
   21.7623   18.8057   21.9202 H   0  0  0  0  0  0  0  0  0  0  0  0
   20.9749   17.3128   21.4615 H   0  0  0  0  0  0  0  0  0  0  0  0
   20.1274   19.0995   25.4883 O   0  0  0  0  0  0  0  0  0  0  0  0
   19.1657   18.9148   25.4930 H   0  0  0  0  0  0  0  0  0  0  0  0
  1  2  1  0  0  0  0
  1  3  1  0  0  0  0
  1  4  1  0  0  0  0
  4  5  1  0  0  0  0
  4  6  1  0  0  0  0
  4  7  1  0  0  0  0
  7  8  1  0  0  0  0
  7  9  1  0  0  0  0
  7 10  1  0  0  0  0
 10 11  1  0  0  0  0
 10 12  1  0  0  0  0
 10 13  1  0  0  0  0
 13 14  1  0  0  0  0
 13 15  1  0  0  0  0
 15 16  1  0  0  0  0
 15 17  1  0  0  0  0
  1 18  1  0  0  0  0
 15 18  1  0  0  0  0
 18 19  1  0  0  0  0
 18 20  1  0  0  0  0
 13 21  1  0  0  0  0
 21 22  1  0  0  0  0
M  END
> <VM2 Rank>
18

> <Conf_Id>
5

> <Probability>
3.04

> <Sum Probability>
88.51

> <Delta G>
0.597

> <G>
47.984

> <E>
21.428

> <-TS>
26.556

> <U+W>
3.543

> <U>
5.491

> <W>
-1.948

> <W(PB)>
-3.950

> <W(SA)>
2.002

> <Valence>
12.680

> <Coulomb>
-9.215

> <VdW>
2.026

> <VdW6>
-8.898

> <VdW12>
10.924

> <Bond>
0.211

> <Angle>
2.587

> <Pdih>
9.882

> <Idih>
0.000

> <Tether>
0.000

$$$$
VeraChem MOL file


 22 22  0  0  0  0  0  0  0  0999 V2000     
   19.9172   19.0710   20.7944 C   0  0  0  0  0  0  0  0  0  0  0  0
   20.5731   19.3744   19.9669 H   0  0  0  0  0  0  0  0  0  0  0  0
   19.1955   18.3666   20.3587 H   0  0  0  0  0  0  0  0  0  0  0  0
   19.1362   20.3091   21.2972 C   0  0  0  0  0  0  0  0  0  0  0  0
   18.8655   20.9169   20.4230 H   0  0  0  0  0  0  0  0  0  0  0  0
   18.1826   19.9879   21.7379 H   0  0  0  0  0  0  0  0  0  0  0  0
   19.8964   21.1974   22.3088 C   0  0  0  0  0  0  0  0  0  0  0  0
   19.4960   22.2176   22.2340 H   0  0  0  0  0  0  0  0  0  0  0  0
   20.9605   21.2672   22.0454 H   0  0  0  0  0  0  0  0  0  0  0  0
   19.7182   20.7273   23.7739 C   0  0  0  0  0  0  0  0  0  0  0  0
   20.0709   21.5255   24.4400 H   0  0  0  0  0  0  0  0  0  0  0  0
   18.6490   20.6038   23.9907 H   0  0  0  0  0  0  0  0  0  0  0  0
   20.4680   19.4316   24.1500 C   0  0  0  0  0  0  0  0  0  0  0  0
   21.5481   19.6298   24.0948 H   0  0  0  0  0  0  0  0  0  0  0  0
   20.1475   18.2158   23.2512 C   0  0  0  0  0  0  0  0  0  0  0  0
   20.5555   17.3175   23.7327 H   0  0  0  0  0  0  0  0  0  0  0  0
   19.0628   18.0619   23.1813 H   0  0  0  0  0  0  0  0  0  0  0  0
   20.7780   18.3248   21.8421 C   0  0  0  0  0  0  0  0  0  0  0  0
   21.7623   18.8067   21.9187 H   0  0  0  0  0  0  0  0  0  0  0  0
   20.9750   17.3136   21.4605 H   0  0  0  0  0  0  0  0  0  0  0  0
   20.1244   19.1009   25.4894 O   0  0  0  0  0  0  0  0  0  0  0  0
   20.6548   18.3131   25.7312 H   0  0  0  0  0  0  0  0  0  0  0  0
  1  2  1  0  0  0  0
  1  3  1  0  0  0  0
  1  4  1  0  0  0  0
  4  5  1  0  0  0  0
  4  6  1  0  0  0  0
  4  7  1  0  0  0  0
  7  8  1  0  0  0  0
  7  9  1  0  0  0  0
  7 10  1  0  0  0  0
 10 11  1  0  0  0  0
 10 12  1  0  0  0  0
 10 13  1  0  0  0  0
 13 14  1  0  0  0  0
 13 15  1  0  0  0  0
 15 16  1  0  0  0  0
 15 17  1  0  0  0  0
  1 18  1  0  0  0  0
 15 18  1  0  0  0  0
 18 19  1  0  0  0  0
 18 20  1  0  0  0  0
 13 21  1  0  0  0  0
 21 22  1  0  0  0  0
M  END
> <VM2 Rank>
19

> <Conf_Id>
185

> <Probability>
2.93

> <Sum Probability>
91.44

> <Delta G>
0.620

> <G>
48.007

> <E>
21.435

> <-TS>
26.571

> <U+W>
3.551

> <U>
5.847

> <W>
-2.297

> <W(PB)>
-4.297

> <W(SA)>
2.000

> <Valence>
12.333

> <Coulomb>
-8.545

> <VdW>
2.059

> <VdW6>
-8.868

> <VdW12>
10.927

> <Bond>
0.216

> <Angle>
2.565

> <Pdih>
9.553

> <Idih>
0.000

> <Tether>
0.000

$$$$
VeraChem MOL file


 22 22  0  0  0  0  0  0  0  0999 V2000     
   19.3694   18.8971   21.3768 C   0  0  0  0  0  0  0  0  0  0  0  0
   19.1392   18.5121   20.3739 H   0  0  0  0  0  0  0  0  0  0  0  0
   18.5799   18.5101   22.0337 H   0  0  0  0  0  0  0  0  0  0  0  0
   19.3327   20.4412   21.3012 C   0  0  0  0  0  0  0  0  0  0  0  0
   20.1554   20.7904   20.6623 H   0  0  0  0  0  0  0  0  0  0  0  0
   18.4095   20.7457   20.7895 H   0  0  0  0  0  0  0  0  0  0  0  0
   19.3984   21.1772   22.6585 C   0  0  0  0  0  0  0  0  0  0  0  0
   18.4504   21.0476   23.1965 H   0  0  0  0  0  0  0  0  0  0  0  0
   19.4629   22.2540   22.4510 H   0  0  0  0  0  0  0  0  0  0  0  0
   20.5964   20.7902   23.5692 C   0  0  0  0  0  0  0  0  0  0  0  0
   21.5386   20.8999   23.0168 H   0  0  0  0  0  0  0  0  0  0  0  0
   20.6454   21.5229   24.3851 H   0  0  0  0  0  0  0  0  0  0  0  0
   20.5306   19.3845   24.2171 C   0  0  0  0  0  0  0  0  0  0  0  0
   21.2036   19.3912   25.0865 H   0  0  0  0  0  0  0  0  0  0  0  0
   20.9886   18.2140   23.3134 C   0  0  0  0  0  0  0  0  0  0  0  0
   22.0635   18.0597   23.4740 H   0  0  0  0  0  0  0  0  0  0  0  0
   20.5093   17.2908   23.6658 H   0  0  0  0  0  0  0  0  0  0  0  0
   20.7553   18.3505   21.7878 C   0  0  0  0  0  0  0  0  0  0  0  0
   21.5422   18.9792   21.3494 H   0  0  0  0  0  0  0  0  0  0  0  0
   20.8897   17.3575   21.3377 H   0  0  0  0  0  0  0  0  0  0  0  0
   19.2145   19.1231   24.6831 O   0  0  0  0  0  0  0  0  0  0  0  0
   18.6542   19.1822   23.8835 H   0  0  0  0  0  0  0  0  0  0  0  0
  1  2  1  0  0  0  0
  1  3  1  0  0  0  0
  1  4  1  0  0  0  0
  4  5  1  0  0  0  0
  4  6  1  0  0  0  0
  4  7  1  0  0  0  0
  7  8  1  0  0  0  0
  7  9  1  0  0  0  0
  7 10  1  0  0  0  0
 10 11  1  0  0  0  0
 10 12  1  0  0  0  0
 10 13  1  0  0  0  0
 13 14  1  0  0  0  0
 13 15  1  0  0  0  0
 15 16  1  0  0  0  0
 15 17  1  0  0  0  0
  1 18  1  0  0  0  0
 15 18  1  0  0  0  0
 18 19  1  0  0  0  0
 18 20  1  0  0  0  0
 13 21  1  0  0  0  0
 21 22  1  0  0  0  0
M  END
> <VM2 Rank>
20

> <Conf_Id>
805

> <Probability>
2.19

> <Sum Probability>
93.63

> <Delta G>
0.792

> <G>
48.179

> <E>
21.156

> <-TS>
27.023

> <U+W>
3.272

> <U>
4.573

> <W>
-1.301

> <W(PB)>
-3.281

> <W(SA)>
1.980

> <Valence>
12.697

> <Coulomb>
-10.358

> <VdW>
2.234

> <VdW6>
-10.225

> <VdW12>
12.459

> <Bond>
0.281

> <Angle>
3.786

> <Pdih>
8.630

> <Idih>
0.000

> <Tether>
0.000

$$$$
VeraChem MOL file


 22 22  0  0  0  0  0  0  0  0999 V2000     
   19.6931   19.0087   21.0420 C   0  0  0  0  0  0  0  0  0  0  0  0
   20.5044   19.3525   20.3858 H   0  0  0  0  0  0  0  0  0  0  0  0
   18.9886   18.4756   20.3890 H   0  0  0  0  0  0  0  0  0  0  0  0
   18.9738   20.2373   21.6457 C   0  0  0  0  0  0  0  0  0  0  0  0
   18.4744   20.7652   20.8217 H   0  0  0  0  0  0  0  0  0  0  0  0
   18.1746   19.9344   22.3342 H   0  0  0  0  0  0  0  0  0  0  0  0
   19.9476   21.2285   22.3224 C   0  0  0  0  0  0  0  0  0  0  0  0
   19.5254   22.2402   22.2521 H   0  0  0  0  0  0  0  0  0  0  0  0
   20.8877   21.2639   21.7552 H   0  0  0  0  0  0  0  0  0  0  0  0
   20.2513   20.9452   23.8150 C   0  0  0  0  0  0  0  0  0  0  0  0
   21.1216   21.5509   24.0992 H   0  0  0  0  0  0  0  0  0  0  0  0
   19.4224   21.3275   24.4260 H   0  0  0  0  0  0  0  0  0  0  0  0
   20.5317   19.4789   24.2247 C   0  0  0  0  0  0  0  0  0  0  0  0
   21.2128   19.5191   25.0870 H   0  0  0  0  0  0  0  0  0  0  0  0
   21.2078   18.6030   23.1404 C   0  0  0  0  0  0  0  0  0  0  0  0
   22.0141   19.1691   22.6565 H   0  0  0  0  0  0  0  0  0  0  0  0
   21.7010   17.7690   23.6564 H   0  0  0  0  0  0  0  0  0  0  0  0
   20.2624   17.9998   22.0649 C   0  0  0  0  0  0  0  0  0  0  0  0
   20.8245   17.2395   21.5057 H   0  0  0  0  0  0  0  0  0  0  0  0
   19.4396   17.4516   22.5418 H   0  0  0  0  0  0  0  0  0  0  0  0
   19.3183   18.8766   24.6519 O   0  0  0  0  0  0  0  0  0  0  0  0
   18.7746   18.8167   23.8409 H   0  0  0  0  0  0  0  0  0  0  0  0
  1  2  1  0  0  0  0
  1  3  1  0  0  0  0
  1  4  1  0  0  0  0
  4  5  1  0  0  0  0
  4  6  1  0  0  0  0
  4  7  1  0  0  0  0
  7  8  1  0  0  0  0
  7  9  1  0  0  0  0
  7 10  1  0  0  0  0
 10 11  1  0  0  0  0
 10 12  1  0  0  0  0
 10 13  1  0  0  0  0
 13 14  1  0  0  0  0
 13 15  1  0  0  0  0
 15 16  1  0  0  0  0
 15 17  1  0  0  0  0
  1 18  1  0  0  0  0
 15 18  1  0  0  0  0
 18 19  1  0  0  0  0
 18 20  1  0  0  0  0
 13 21  1  0  0  0  0
 21 22  1  0  0  0  0
M  END
> <VM2 Rank>
21

> <Conf_Id>
158

> <Probability>
1.99

> <Sum Probability>
95.62

> <Delta G>
0.851

> <G>
48.238

> <E>
21.216

> <-TS>
27.023

> <U+W>
3.331

> <U>
4.573

> <W>
-1.242

> <W(PB)>
-3.234

> <W(SA)>
1.992

> <Valence>
12.697

> <Coulomb>
-10.358

> <VdW>
2.234

> <VdW6>
-10.225

> <VdW12>
12.458

> <Bond>
0.281

> <Angle>
3.786

> <Pdih>
8.630

> <Idih>
0.000

> <Tether>
0.000

$$$$
VeraChem MOL file


 22 22  0  0  0  0  0  0  0  0999 V2000     
   20.1425   19.1943   20.9744 C   0  0  0  0  0  0  0  0  0  0  0  0
   21.2059   19.4537   20.8831 H   0  0  0  0  0  0  0  0  0  0  0  0
   19.8569   18.7783   19.9986 H   0  0  0  0  0  0  0  0  0  0  0  0
   19.3151   20.4813   21.2061 C   0  0  0  0  0  0  0  0  0  0  0  0
   19.7659   21.2905   20.6157 H   0  0  0  0  0  0  0  0  0  0  0  0
   18.3077   20.3361   20.7926 H   0  0  0  0  0  0  0  0  0  0  0  0
   19.1674   20.9479   22.6740 C   0  0  0  0  0  0  0  0  0  0  0  0
   18.3415   20.4018   23.1484 H   0  0  0  0  0  0  0  0  0  0  0  0
   18.8519   21.9999   22.6631 H   0  0  0  0  0  0  0  0  0  0  0  0
   20.4522   20.8209   23.5333 C   0  0  0  0  0  0  0  0  0  0  0  0
   21.3336   21.0751   22.9303 H   0  0  0  0  0  0  0  0  0  0  0  0
   20.4098   21.5766   24.3282 H   0  0  0  0  0  0  0  0  0  0  0  0
   20.6585   19.4423   24.2096 C   0  0  0  0  0  0  0  0  0  0  0  0
   21.5321   19.5340   24.8710 H   0  0  0  0  0  0  0  0  0  0  0  0
   20.9524   18.2729   23.2426 C   0  0  0  0  0  0  0  0  0  0  0  0
   21.9726   18.3839   22.8536 H   0  0  0  0  0  0  0  0  0  0  0  0
   20.9596   17.3438   23.8276 H   0  0  0  0  0  0  0  0  0  0  0  0
   19.9704   18.1022   22.0557 C   0  0  0  0  0  0  0  0  0  0  0  0
   20.1731   17.1277   21.5915 H   0  0  0  0  0  0  0  0  0  0  0  0
   18.9317   18.0603   22.4111 H   0  0  0  0  0  0  0  0  0  0  0  0
   19.5275   19.1162   25.0112 O   0  0  0  0  0  0  0  0  0  0  0  0
   19.3457   19.8998   25.5690 H   0  0  0  0  0  0  0  0  0  0  0  0
  1  2  1  0  0  0  0
  1  3  1  0  0  0  0
  1  4  1  0  0  0  0
  4  5  1  0  0  0  0
  4  6  1  0  0  0  0
  4  7  1  0  0  0  0
  7  8  1  0  0  0  0
  7  9  1  0  0  0  0
  7 10  1  0  0  0  0
 10 11  1  0  0  0  0
 10 12  1  0  0  0  0
 10 13  1  0  0  0  0
 13 14  1  0  0  0  0
 13 15  1  0  0  0  0
 15 16  1  0  0  0  0
 15 17  1  0  0  0  0
  1 18  1  0  0  0  0
 15 18  1  0  0  0  0
 18 19  1  0  0  0  0
 18 20  1  0  0  0  0
 13 21  1  0  0  0  0
 21 22  1  0  0  0  0
M  END
> <VM2 Rank>
22

> <Conf_Id>
495

> <Probability>
0.92

> <Sum Probability>
96.54

> <Delta G>
1.312

> <G>
48.699

> <E>
21.997

> <-TS>
26.702

> <U+W>
4.112

> <U>
6.373

> <W>
-2.262

> <W(PB)>
-4.261

> <W(SA)>
1.999

> <Valence>
12.093

> <Coulomb>
-8.058

> <VdW>
2.339

> <VdW6>
-9.683

> <VdW12>
12.022

> <Bond>
0.268

> <Angle>
3.005

> <Pdih>
8.820

> <Idih>
0.000

> <Tether>
0.000

$$$$
VeraChem MOL file


 22 22  0  0  0  0  0  0  0  0999 V2000     
   19.7056   18.9876   20.9382 C   0  0  0  0  0  0  0  0  0  0  0  0
   20.4350   18.7569   20.1499 H   0  0  0  0  0  0  0  0  0  0  0  0
   18.7224   18.7368   20.5172 H   0  0  0  0  0  0  0  0  0  0  0  0
   19.7586   20.5089   21.2165 C   0  0  0  0  0  0  0  0  0  0  0  0
   20.7952   20.8616   21.1296 H   0  0  0  0  0  0  0  0  0  0  0  0
   19.2066   21.0198   20.4159 H   0  0  0  0  0  0  0  0  0  0  0  0
   19.1797   20.9447   22.5827 C   0  0  0  0  0  0  0  0  0  0  0  0
   18.2991   20.3434   22.8470 H   0  0  0  0  0  0  0  0  0  0  0  0
   18.8246   21.9797   22.4882 H   0  0  0  0  0  0  0  0  0  0  0  0
   20.2327   20.9090   23.7194 C   0  0  0  0  0  0  0  0  0  0  0  0
   21.1282   21.4566   23.3990 H   0  0  0  0  0  0  0  0  0  0  0  0
   19.8386   21.4662   24.5795 H   0  0  0  0  0  0  0  0  0  0  0  0
   20.6568   19.5073   24.2139 C   0  0  0  0  0  0  0  0  0  0  0  0
   21.5234   19.6531   24.8747 H   0  0  0  0  0  0  0  0  0  0  0  0
   21.0924   18.5201   23.1021 C   0  0  0  0  0  0  0  0  0  0  0  0
   21.9171   18.9537   22.5217 H   0  0  0  0  0  0  0  0  0  0  0  0
   21.5110   17.6322   23.5932 H   0  0  0  0  0  0  0  0  0  0  0  0
   19.9590   18.0586   22.1494 C   0  0  0  0  0  0  0  0  0  0  0  0
   20.2065   17.0607   21.7628 H   0  0  0  0  0  0  0  0  0  0  0  0
   19.0244   17.9290   22.7108 H   0  0  0  0  0  0  0  0  0  0  0  0
   19.6013   18.9418   24.9848 O   0  0  0  0  0  0  0  0  0  0  0  0
   19.8894   18.0396   25.2325 H   0  0  0  0  0  0  0  0  0  0  0  0
  1  2  1  0  0  0  0
  1  3  1  0  0  0  0
  1  4  1  0  0  0  0
  4  5  1  0  0  0  0
  4  6  1  0  0  0  0
  4  7  1  0  0  0  0
  7  8  1  0  0  0  0
  7  9  1  0  0  0  0
  7 10  1  0  0  0  0
 10 11  1  0  0  0  0
 10 12  1  0  0  0  0
 10 13  1  0  0  0  0
 13 14  1  0  0  0  0
 13 15  1  0  0  0  0
 15 16  1  0  0  0  0
 15 17  1  0  0  0  0
  1 18  1  0  0  0  0
 15 18  1  0  0  0  0
 18 19  1  0  0  0  0
 18 20  1  0  0  0  0
 13 21  1  0  0  0  0
 21 22  1  0  0  0  0
M  END
> <VM2 Rank>
23

> <Conf_Id>
261

> <Probability>
0.88

> <Sum Probability>
97.42

> <Delta G>
1.334

> <G>
48.721

> <E>
22.019

> <-TS>
26.702

> <U+W>
4.134

> <U>
6.373

> <W>
-2.240

> <W(PB)>
-4.254

> <W(SA)>
2.015

> <Valence>
12.093

> <Coulomb>
-8.058

> <VdW>
2.339

> <VdW6>
-9.683

> <VdW12>
12.022

> <Bond>
0.268

> <Angle>
3.005

> <Pdih>
8.820

> <Idih>
0.000

> <Tether>
0.000

$$$$
VeraChem MOL file


 22 22  0  0  0  0  0  0  0  0999 V2000     
   20.0102   19.2252   21.0612 C   0  0  0  0  0  0  0  0  0  0  0  0
   20.9425   19.7630   20.8426 H   0  0  0  0  0  0  0  0  0  0  0  0
   19.6483   18.8392   20.0986 H   0  0  0  0  0  0  0  0  0  0  0  0
   18.9353   20.1841   21.6229 C   0  0  0  0  0  0  0  0  0  0  0  0
   18.4493   20.7048   20.7867 H   0  0  0  0  0  0  0  0  0  0  0  0
   18.1413   19.5945   22.1012 H   0  0  0  0  0  0  0  0  0  0  0  0
   19.4498   21.2519   22.6188 C   0  0  0  0  0  0  0  0  0  0  0  0
   18.6024   21.5848   23.2332 H   0  0  0  0  0  0  0  0  0  0  0  0
   19.7682   22.1369   22.0514 H   0  0  0  0  0  0  0  0  0  0  0  0
   20.6214   20.8371   23.5478 C   0  0  0  0  0  0  0  0  0  0  0  0
   21.5628   20.9230   22.9900 H   0  0  0  0  0  0  0  0  0  0  0  0
   20.6979   21.5794   24.3528 H   0  0  0  0  0  0  0  0  0  0  0  0
   20.5575   19.4292   24.1868 C   0  0  0  0  0  0  0  0  0  0  0  0
   21.2218   19.4513   25.0627 H   0  0  0  0  0  0  0  0  0  0  0  0
   21.1012   18.3195   23.2565 C   0  0  0  0  0  0  0  0  0  0  0  0
   22.1241   18.5816   22.9573 H   0  0  0  0  0  0  0  0  0  0  0  0
   21.1910   17.3962   23.8431 H   0  0  0  0  0  0  0  0  0  0  0  0
   20.2710   18.0117   21.9858 C   0  0  0  0  0  0  0  0  0  0  0  0
   20.8026   17.2423   21.4100 H   0  0  0  0  0  0  0  0  0  0  0  0
   19.3136   17.5588   22.2776 H   0  0  0  0  0  0  0  0  0  0  0  0
   19.2396   19.1193   24.6272 O   0  0  0  0  0  0  0  0  0  0  0  0
   18.8873   19.9372   25.0317 H   0  0  0  0  0  0  0  0  0  0  0  0
  1  2  1  0  0  0  0
  1  3  1  0  0  0  0
  1  4  1  0  0  0  0
  4  5  1  0  0  0  0
  4  6  1  0  0  0  0
  4  7  1  0  0  0  0
  7  8  1  0  0  0  0
  7  9  1  0  0  0  0
  7 10  1  0  0  0  0
 10 11  1  0  0  0  0
 10 12  1  0  0  0  0
 10 13  1  0  0  0  0
 13 14  1  0  0  0  0
 13 15  1  0  0  0  0
 15 16  1  0  0  0  0
 15 17  1  0  0  0  0
  1 18  1  0  0  0  0
 15 18  1  0  0  0  0
 18 19  1  0  0  0  0
 18 20  1  0  0  0  0
 13 21  1  0  0  0  0
 21 22  1  0  0  0  0
M  END
> <VM2 Rank>
24

> <Conf_Id>
762

> <Probability>
0.41

> <Sum Probability>
97.83

> <Delta G>
1.791

> <G>
49.178

> <E>
22.505

> <-TS>
26.672

> <U+W>
4.620

> <U>
6.656

> <W>
-2.035

> <W(PB)>
-4.035

> <W(SA)>
2.000

> <Valence>
12.237

> <Coulomb>
-7.547

> <VdW>
1.965

> <VdW6>
-10.135

> <VdW12>
12.100

> <Bond>
0.261

> <Angle>
3.589

> <Pdih>
8.387

> <Idih>
0.000

> <Tether>
0.000

$$$$
VeraChem MOL file


 22 22  0  0  0  0  0  0  0  0999 V2000     
   19.2938   18.9079   21.3844 C   0  0  0  0  0  0  0  0  0  0  0  0
   19.0597   18.5327   20.3790 H   0  0  0  0  0  0  0  0  0  0  0  0
   18.3648   18.7992   21.9606 H   0  0  0  0  0  0  0  0  0  0  0  0
   19.6584   20.4074   21.2889 C   0  0  0  0  0  0  0  0  0  0  0  0
   20.7057   20.5398   20.9861 H   0  0  0  0  0  0  0  0  0  0  0  0
   19.0513   20.8521   20.4887 H   0  0  0  0  0  0  0  0  0  0  0  0
   19.3542   21.1811   22.5945 C   0  0  0  0  0  0  0  0  0  0  0  0
   18.3367   20.9441   22.9342 H   0  0  0  0  0  0  0  0  0  0  0  0
   19.3518   22.2562   22.3703 H   0  0  0  0  0  0  0  0  0  0  0  0
   20.3522   20.9345   23.7528 C   0  0  0  0  0  0  0  0  0  0  0  0
   21.3268   21.3578   23.4779 H   0  0  0  0  0  0  0  0  0  0  0  0
   20.0160   21.5070   24.6269 H   0  0  0  0  0  0  0  0  0  0  0  0
   20.5560   19.4649   24.1901 C   0  0  0  0  0  0  0  0  0  0  0  0
   21.2248   19.4919   25.0625 H   0  0  0  0  0  0  0  0  0  0  0  0
   21.2665   18.6085   23.1147 C   0  0  0  0  0  0  0  0  0  0  0  0
   22.0541   19.2164   22.6510 H   0  0  0  0  0  0  0  0  0  0  0  0
   21.7969   17.7903   23.6185 H   0  0  0  0  0  0  0  0  0  0  0  0
   20.3844   17.9945   21.9954 C   0  0  0  0  0  0  0  0  0  0  0  0
   21.0506   17.6561   21.1903 H   0  0  0  0  0  0  0  0  0  0  0  0
   19.8977   17.0867   22.3766 H   0  0  0  0  0  0  0  0  0  0  0  0
   19.3205   18.8790   24.5861 O   0  0  0  0  0  0  0  0  0  0  0  0
   19.4826   17.9165   24.6501 H   0  0  0  0  0  0  0  0  0  0  0  0
  1  2  1  0  0  0  0
  1  3  1  0  0  0  0
  1  4  1  0  0  0  0
  4  5  1  0  0  0  0
  4  6  1  0  0  0  0
  4  7  1  0  0  0  0
  7  8  1  0  0  0  0
  7  9  1  0  0  0  0
  7 10  1  0  0  0  0
 10 11  1  0  0  0  0
 10 12  1  0  0  0  0
 10 13  1  0  0  0  0
 13 14  1  0  0  0  0
 13 15  1  0  0  0  0
 15 16  1  0  0  0  0
 15 17  1  0  0  0  0
  1 18  1  0  0  0  0
 15 18  1  0  0  0  0
 18 19  1  0  0  0  0
 18 20  1  0  0  0  0
 13 21  1  0  0  0  0
 21 22  1  0  0  0  0
M  END
> <VM2 Rank>
25

> <Conf_Id>
130

> <Probability>
0.39

> <Sum Probability>
98.22

> <Delta G>
1.821

> <G>
49.207

> <E>
22.533

> <-TS>
26.674

> <U+W>
4.648

> <U>
6.656

> <W>
-2.008

> <W(PB)>
-3.998

> <W(SA)>
1.991

> <Valence>
12.237

> <Coulomb>
-7.547

> <VdW>
1.965

> <VdW6>
-10.135

> <VdW12>
12.101

> <Bond>
0.261

> <Angle>
3.589

> <Pdih>
8.387

> <Idih>
0.000

> <Tether>
0.000

$$$$
VeraChem MOL file


 22 22  0  0  0  0  0  0  0  0999 V2000     
   19.7123   19.0127   21.0220 C   0  0  0  0  0  0  0  0  0  0  0  0
   19.0165   18.4857   20.3551 H   0  0  0  0  0  0  0  0  0  0  0  0
   20.5437   19.3463   20.3863 H   0  0  0  0  0  0  0  0  0  0  0  0
   18.9903   20.2432   21.6156 C   0  0  0  0  0  0  0  0  0  0  0  0
   18.4936   20.7724   20.7912 H   0  0  0  0  0  0  0  0  0  0  0  0
   18.1939   19.9317   22.3056 H   0  0  0  0  0  0  0  0  0  0  0  0
   19.9582   21.2280   22.3085 C   0  0  0  0  0  0  0  0  0  0  0  0
   20.9144   21.2517   21.7687 H   0  0  0  0  0  0  0  0  0  0  0  0
   19.5467   22.2429   22.2238 H   0  0  0  0  0  0  0  0  0  0  0  0
   20.2085   20.9432   23.8106 C   0  0  0  0  0  0  0  0  0  0  0  0
   21.0389   21.5823   24.1370 H   0  0  0  0  0  0  0  0  0  0  0  0
   19.3370   21.2846   24.3852 H   0  0  0  0  0  0  0  0  0  0  0  0
   20.5324   19.4849   24.2244 C   0  0  0  0  0  0  0  0  0  0  0  0
   21.2497   19.5548   25.0550 H   0  0  0  0  0  0  0  0  0  0  0  0
   21.1939   18.6026   23.1346 C   0  0  0  0  0  0  0  0  0  0  0  0
   21.9982   19.1641   22.6422 H   0  0  0  0  0  0  0  0  0  0  0  0
   21.6902   17.7671   23.6449 H   0  0  0  0  0  0  0  0  0  0  0  0
   20.2362   18.0048   22.0684 C   0  0  0  0  0  0  0  0  0  0  0  0
   19.3853   17.5100   22.5547 H   0  0  0  0  0  0  0  0  0  0  0  0
   20.7707   17.2092   21.5319 H   0  0  0  0  0  0  0  0  0  0  0  0
   19.3542   18.8587   24.7229 O   0  0  0  0  0  0  0  0  0  0  0  0
   19.5902   17.9252   24.8977 H   0  0  0  0  0  0  0  0  0  0  0  0
  1  2  1  0  0  0  0
  1  3  1  0  0  0  0
  1  4  1  0  0  0  0
  4  5  1  0  0  0  0
  4  6  1  0  0  0  0
  4  7  1  0  0  0  0
  7  8  1  0  0  0  0
  7  9  1  0  0  0  0
  7 10  1  0  0  0  0
 10 11  1  0  0  0  0
 10 12  1  0  0  0  0
 10 13  1  0  0  0  0
 13 14  1  0  0  0  0
 13 15  1  0  0  0  0
 15 16  1  0  0  0  0
 15 17  1  0  0  0  0
  1 18  1  0  0  0  0
 15 18  1  0  0  0  0
 18 19  1  0  0  0  0
 18 20  1  0  0  0  0
 13 21  1  0  0  0  0
 21 22  1  0  0  0  0
M  END
> <VM2 Rank>
26

> <Conf_Id>
461

> <Probability>
0.35

> <Sum Probability>
98.57

> <Delta G>
1.882

> <G>
49.269

> <E>
22.627

> <-TS>
26.642

> <U+W>
4.742

> <U>
6.897

> <W>
-2.155

> <W(PB)>
-4.140

> <W(SA)>
1.985

> <Valence>
12.367

> <Coulomb>
-7.745

> <VdW>
2.276

> <VdW6>
-9.828

> <VdW12>
12.104

> <Bond>
0.281

> <Angle>
3.460

> <Pdih>
8.626

> <Idih>
0.000

> <Tether>
0.000

$$$$
VeraChem MOL file


 22 22  0  0  0  0  0  0  0  0999 V2000     
   19.3840   18.9080   21.3497 C   0  0  0  0  0  0  0  0  0  0  0  0
   19.1567   18.5214   20.3470 H   0  0  0  0  0  0  0  0  0  0  0  0
   18.5928   18.5302   22.0120 H   0  0  0  0  0  0  0  0  0  0  0  0
   19.3498   20.4514   21.2815 C   0  0  0  0  0  0  0  0  0  0  0  0
   20.1864   20.8102   20.6667 H   0  0  0  0  0  0  0  0  0  0  0  0
   18.4361   20.7591   20.7552 H   0  0  0  0  0  0  0  0  0  0  0  0
   19.3787   21.1589   22.6541 C   0  0  0  0  0  0  0  0  0  0  0  0
   18.4339   20.9706   23.1804 H   0  0  0  0  0  0  0  0  0  0  0  0
   19.4037   22.2422   22.4744 H   0  0  0  0  0  0  0  0  0  0  0  0
   20.5841   20.7869   23.5598 C   0  0  0  0  0  0  0  0  0  0  0  0
   21.5216   20.9010   23.0006 H   0  0  0  0  0  0  0  0  0  0  0  0
   20.6348   21.5259   24.3699 H   0  0  0  0  0  0  0  0  0  0  0  0
   20.5343   19.3827   24.2151 C   0  0  0  0  0  0  0  0  0  0  0  0
   21.2512   19.3958   25.0489 H   0  0  0  0  0  0  0  0  0  0  0  0
   20.9500   18.1968   23.3077 C   0  0  0  0  0  0  0  0  0  0  0  0
   22.0103   17.9817   23.4926 H   0  0  0  0  0  0  0  0  0  0  0  0
   20.4106   17.2985   23.6368 H   0  0  0  0  0  0  0  0  0  0  0  0
   20.7628   18.3586   21.7784 C   0  0  0  0  0  0  0  0  0  0  0  0
   21.5600   18.9943   21.3700 H   0  0  0  0  0  0  0  0  0  0  0  0
   20.9068   17.3723   21.3168 H   0  0  0  0  0  0  0  0  0  0  0  0
   19.2422   19.1346   24.7605 O   0  0  0  0  0  0  0  0  0  0  0  0
   18.9939   19.9387   25.2601 H   0  0  0  0  0  0  0  0  0  0  0  0
  1  2  1  0  0  0  0
  1  3  1  0  0  0  0
  1  4  1  0  0  0  0
  4  5  1  0  0  0  0
  4  6  1  0  0  0  0
  4  7  1  0  0  0  0
  7  8  1  0  0  0  0
  7  9  1  0  0  0  0
  7 10  1  0  0  0  0
 10 11  1  0  0  0  0
 10 12  1  0  0  0  0
 10 13  1  0  0  0  0
 13 14  1  0  0  0  0
 13 15  1  0  0  0  0
 15 16  1  0  0  0  0
 15 17  1  0  0  0  0
  1 18  1  0  0  0  0
 15 18  1  0  0  0  0
 18 19  1  0  0  0  0
 18 20  1  0  0  0  0
 13 21  1  0  0  0  0
 21 22  1  0  0  0  0
M  END
> <VM2 Rank>
27

> <Conf_Id>
186

> <Probability>
0.33

> <Sum Probability>
98.91

> <Delta G>
1.914

> <G>
49.300

> <E>
22.659

> <-TS>
26.642

> <U+W>
4.774

> <U>
6.897

> <W>
-2.123

> <W(PB)>
-4.121

> <W(SA)>
1.998

> <Valence>
12.367

> <Coulomb>
-7.745

> <VdW>
2.276

> <VdW6>
-9.828

> <VdW12>
12.103

> <Bond>
0.281

> <Angle>
3.460

> <Pdih>
8.626

> <Idih>
0.000

> <Tether>
0.000

$$$$
VeraChem MOL file


 22 22  0  0  0  0  0  0  0  0999 V2000     
   20.0109   19.2234   21.0598 C   0  0  0  0  0  0  0  0  0  0  0  0
   19.6496   18.8371   20.0970 H   0  0  0  0  0  0  0  0  0  0  0  0
   20.9443   19.7596   20.8423 H   0  0  0  0  0  0  0  0  0  0  0  0
   18.9373   20.1848   21.6191 C   0  0  0  0  0  0  0  0  0  0  0  0
   18.4544   20.7070   20.7821 H   0  0  0  0  0  0  0  0  0  0  0  0
   18.1408   19.5973   22.0958 H   0  0  0  0  0  0  0  0  0  0  0  0
   19.4496   21.2508   22.6183 C   0  0  0  0  0  0  0  0  0  0  0  0
   18.6010   21.5728   23.2373 H   0  0  0  0  0  0  0  0  0  0  0  0
   19.7623   22.1411   22.0562 H   0  0  0  0  0  0  0  0  0  0  0  0
   20.6202   20.8388   23.5500 C   0  0  0  0  0  0  0  0  0  0  0  0
   21.5643   20.9318   22.9981 H   0  0  0  0  0  0  0  0  0  0  0  0
   20.6849   21.5773   24.3593 H   0  0  0  0  0  0  0  0  0  0  0  0
   20.5576   19.4300   24.1873 C   0  0  0  0  0  0  0  0  0  0  0  0
   21.2251   19.4502   25.0609 H   0  0  0  0  0  0  0  0  0  0  0  0
   21.1010   18.3225   23.2538 C   0  0  0  0  0  0  0  0  0  0  0  0
   22.1199   18.5931   22.9476 H   0  0  0  0  0  0  0  0  0  0  0  0
   21.2063   17.3982   23.8365 H   0  0  0  0  0  0  0  0  0  0  0  0
   20.2679   18.0111   21.9865 C   0  0  0  0  0  0  0  0  0  0  0  0
   20.7990   17.2405   21.4114 H   0  0  0  0  0  0  0  0  0  0  0  0
   19.3097   17.5595   22.2770 H   0  0  0  0  0  0  0  0  0  0  0  0
   19.2414   19.1166   24.6323 O   0  0  0  0  0  0  0  0  0  0  0  0
   19.2628   18.1853   24.9307 H   0  0  0  0  0  0  0  0  0  0  0  0
  1  2  1  0  0  0  0
  1  3  1  0  0  0  0
  1  4  1  0  0  0  0
  4  5  1  0  0  0  0
  4  6  1  0  0  0  0
  4  7  1  0  0  0  0
  7  8  1  0  0  0  0
  7  9  1  0  0  0  0
  7 10  1  0  0  0  0
 10 11  1  0  0  0  0
 10 12  1  0  0  0  0
 10 13  1  0  0  0  0
 13 14  1  0  0  0  0
 13 15  1  0  0  0  0
 15 16  1  0  0  0  0
 15 17  1  0  0  0  0
  1 18  1  0  0  0  0
 15 18  1  0  0  0  0
 18 19  1  0  0  0  0
 18 20  1  0  0  0  0
 13 21  1  0  0  0  0
 21 22  1  0  0  0  0
M  END
> <VM2 Rank>
28

> <Conf_Id>
499

> <Probability>
0.20

> <Sum Probability>
99.11

> <Delta G>
2.226

> <G>
49.612

> <E>
22.877

> <-TS>
26.736

> <U+W>
4.992

> <U>
7.115

> <W>
-2.123

> <W(PB)>
-4.113

> <W(SA)>
1.991

> <Valence>
12.146

> <Coulomb>
-6.960

> <VdW>
1.928

> <VdW6>
-10.064

> <VdW12>
11.993

> <Bond>
0.260

> <Angle>
3.626

> <Pdih>
8.260

> <Idih>
0.000

> <Tether>
0.000

$$$$
VeraChem MOL file


 22 22  0  0  0  0  0  0  0  0999 V2000     
   19.2957   18.9097   21.3807 C   0  0  0  0  0  0  0  0  0  0  0  0
   19.0651   18.5350   20.3743 H   0  0  0  0  0  0  0  0  0  0  0  0
   18.3654   18.7988   21.9543 H   0  0  0  0  0  0  0  0  0  0  0  0
   19.6583   20.4096   21.2882 C   0  0  0  0  0  0  0  0  0  0  0  0
   20.7060   20.5432   20.9871 H   0  0  0  0  0  0  0  0  0  0  0  0
   19.0519   20.8549   20.4878 H   0  0  0  0  0  0  0  0  0  0  0  0
   19.3516   21.1799   22.5947 C   0  0  0  0  0  0  0  0  0  0  0  0
   18.3339   20.9421   22.9326 H   0  0  0  0  0  0  0  0  0  0  0  0
   19.3485   22.2553   22.3715 H   0  0  0  0  0  0  0  0  0  0  0  0
   20.3533   20.9331   23.7492 C   0  0  0  0  0  0  0  0  0  0  0  0
   21.3282   21.3498   23.4646 H   0  0  0  0  0  0  0  0  0  0  0  0
   20.0293   21.5157   24.6212 H   0  0  0  0  0  0  0  0  0  0  0  0
   20.5563   19.4642   24.1904 C   0  0  0  0  0  0  0  0  0  0  0  0
   21.2264   19.4950   25.0617 H   0  0  0  0  0  0  0  0  0  0  0  0
   21.2664   18.6057   23.1164 C   0  0  0  0  0  0  0  0  0  0  0  0
   22.0607   19.2072   22.6562 H   0  0  0  0  0  0  0  0  0  0  0  0
   21.7850   17.7828   23.6248 H   0  0  0  0  0  0  0  0  0  0  0  0
   20.3836   17.9954   21.9955 C   0  0  0  0  0  0  0  0  0  0  0  0
   21.0483   17.6480   21.1932 H   0  0  0  0  0  0  0  0  0  0  0  0
   19.8906   17.0940   22.3845 H   0  0  0  0  0  0  0  0  0  0  0  0
   19.3206   18.8806   24.5918 O   0  0  0  0  0  0  0  0  0  0  0  0
   18.8920   19.5223   25.1930 H   0  0  0  0  0  0  0  0  0  0  0  0
  1  2  1  0  0  0  0
  1  3  1  0  0  0  0
  1  4  1  0  0  0  0
  4  5  1  0  0  0  0
  4  6  1  0  0  0  0
  4  7  1  0  0  0  0
  7  8  1  0  0  0  0
  7  9  1  0  0  0  0
  7 10  1  0  0  0  0
 10 11  1  0  0  0  0
 10 12  1  0  0  0  0
 10 13  1  0  0  0  0
 13 14  1  0  0  0  0
 13 15  1  0  0  0  0
 15 16  1  0  0  0  0
 15 17  1  0  0  0  0
  1 18  1  0  0  0  0
 15 18  1  0  0  0  0
 18 19  1  0  0  0  0
 18 20  1  0  0  0  0
 13 21  1  0  0  0  0
 21 22  1  0  0  0  0
M  END
> <VM2 Rank>
29

> <Conf_Id>
377

> <Probability>
0.18

> <Sum Probability>
99.29

> <Delta G>
2.274

> <G>
49.661

> <E>
22.925

> <-TS>
26.736

> <U+W>
5.040

> <U>
7.115

> <W>
-2.074

> <W(PB)>
-4.071

> <W(SA)>
1.997

> <Valence>
12.146

> <Coulomb>
-6.960

> <VdW>
1.928

> <VdW6>
-10.064

> <VdW12>
11.993

> <Bond>
0.260

> <Angle>
3.626

> <Pdih>
8.260

> <Idih>
0.000

> <Tether>
0.000

$$$$
VeraChem MOL file


 22 22  0  0  0  0  0  0  0  0999 V2000     
   19.7128   19.0132   21.0203 C   0  0  0  0  0  0  0  0  0  0  0  0
   20.5450   19.3456   20.3851 H   0  0  0  0  0  0  0  0  0  0  0  0
   19.0172   18.4858   20.3536 H   0  0  0  0  0  0  0  0  0  0  0  0
   18.9908   20.2442   21.6126 C   0  0  0  0  0  0  0  0  0  0  0  0
   18.4961   20.7740   20.7873 H   0  0  0  0  0  0  0  0  0  0  0  0
   18.1930   19.9329   22.3009 H   0  0  0  0  0  0  0  0  0  0  0  0
   19.9592   21.2273   22.3068 C   0  0  0  0  0  0  0  0  0  0  0  0
   19.5503   22.2431   22.2202 H   0  0  0  0  0  0  0  0  0  0  0  0
   20.9164   21.2486   21.7685 H   0  0  0  0  0  0  0  0  0  0  0  0
   20.2068   20.9432   23.8091 C   0  0  0  0  0  0  0  0  0  0  0  0
   21.0393   21.5812   24.1330 H   0  0  0  0  0  0  0  0  0  0  0  0
   19.3369   21.2927   24.3805 H   0  0  0  0  0  0  0  0  0  0  0  0
   20.5318   19.4849   24.2249 C   0  0  0  0  0  0  0  0  0  0  0  0
   21.2520   19.5565   25.0529 H   0  0  0  0  0  0  0  0  0  0  0  0
   21.1933   18.6021   23.1354 C   0  0  0  0  0  0  0  0  0  0  0  0
   22.0026   19.1585   22.6459 H   0  0  0  0  0  0  0  0  0  0  0  0
   21.6794   17.7635   23.6502 H   0  0  0  0  0  0  0  0  0  0  0  0
   20.2349   18.0065   22.0686 C   0  0  0  0  0  0  0  0  0  0  0  0
   20.7663   17.2072   21.5347 H   0  0  0  0  0  0  0  0  0  0  0  0
   19.3840   17.5163   22.5600 H   0  0  0  0  0  0  0  0  0  0  0  0
   19.3563   18.8567   24.7294 O   0  0  0  0  0  0  0  0  0  0  0  0
   19.0071   19.4366   25.4363 H   0  0  0  0  0  0  0  0  0  0  0  0
  1  2  1  0  0  0  0
  1  3  1  0  0  0  0
  1  4  1  0  0  0  0
  4  5  1  0  0  0  0
  4  6  1  0  0  0  0
  4  7  1  0  0  0  0
  7  8  1  0  0  0  0
  7  9  1  0  0  0  0
  7 10  1  0  0  0  0
 10 11  1  0  0  0  0
 10 12  1  0  0  0  0
 10 13  1  0  0  0  0
 13 14  1  0  0  0  0
 13 15  1  0  0  0  0
 15 16  1  0  0  0  0
 15 17  1  0  0  0  0
  1 18  1  0  0  0  0
 15 18  1  0  0  0  0
 18 19  1  0  0  0  0
 18 20  1  0  0  0  0
 13 21  1  0  0  0  0
 21 22  1  0  0  0  0
M  END
> <VM2 Rank>
30

> <Conf_Id>
144

> <Probability>
0.16

> <Sum Probability>
99.45

> <Delta G>
2.354

> <G>
49.741

> <E>
23.113

> <-TS>
26.627

> <U+W>
5.228

> <U>
7.482

> <W>
-2.254

> <W(PB)>
-4.248

> <W(SA)>
1.995

> <Valence>
12.309

> <Coulomb>
-7.084

> <VdW>
2.257

> <VdW6>
-9.771

> <VdW12>
12.028

> <Bond>
0.284

> <Angle>
3.491

> <Pdih>
8.534

> <Idih>
0.000

> <Tether>
0.000

$$$$
VeraChem MOL file


 22 22  0  0  0  0  0  0  0  0999 V2000     
   19.3845   18.9083   21.3468 C   0  0  0  0  0  0  0  0  0  0  0  0
   19.1590   18.5224   20.3434 H   0  0  0  0  0  0  0  0  0  0  0  0
   18.5920   18.5304   22.0073 H   0  0  0  0  0  0  0  0  0  0  0  0
   19.3504   20.4516   21.2797 C   0  0  0  0  0  0  0  0  0  0  0  0
   20.1871   20.8113   20.6656 H   0  0  0  0  0  0  0  0  0  0  0  0
   18.4366   20.7597   20.7537 H   0  0  0  0  0  0  0  0  0  0  0  0
   19.3788   21.1569   22.6533 C   0  0  0  0  0  0  0  0  0  0  0  0
   18.4366   20.9635   23.1830 H   0  0  0  0  0  0  0  0  0  0  0  0
   19.3996   22.2407   22.4767 H   0  0  0  0  0  0  0  0  0  0  0  0
   20.5836   20.7868   23.5603 C   0  0  0  0  0  0  0  0  0  0  0  0
   21.5231   20.9060   23.0059 H   0  0  0  0  0  0  0  0  0  0  0  0
   20.6246   21.5219   24.3743 H   0  0  0  0  0  0  0  0  0  0  0  0
   20.5339   19.3825   24.2155 C   0  0  0  0  0  0  0  0  0  0  0  0
   21.2540   19.3966   25.0465 H   0  0  0  0  0  0  0  0  0  0  0  0
   20.9482   18.1964   23.3063 C   0  0  0  0  0  0  0  0  0  0  0  0
   22.0095   17.9839   23.4895 H   0  0  0  0  0  0  0  0  0  0  0  0
   20.4137   17.2937   23.6302 H   0  0  0  0  0  0  0  0  0  0  0  0
   20.7629   18.3600   21.7773 C   0  0  0  0  0  0  0  0  0  0  0  0
   21.5599   18.9972   21.3711 H   0  0  0  0  0  0  0  0  0  0  0  0
   20.9092   17.3747   21.3142 H   0  0  0  0  0  0  0  0  0  0  0  0
   19.2436   19.1356   24.7678 O   0  0  0  0  0  0  0  0  0  0  0  0
   19.2839   18.2581   25.1993 H   0  0  0  0  0  0  0  0  0  0  0  0
  1  2  1  0  0  0  0
  1  3  1  0  0  0  0
  1  4  1  0  0  0  0
  4  5  1  0  0  0  0
  4  6  1  0  0  0  0
  4  7  1  0  0  0  0
  7  8  1  0  0  0  0
  7  9  1  0  0  0  0
  7 10  1  0  0  0  0
 10 11  1  0  0  0  0
 10 12  1  0  0  0  0
 10 13  1  0  0  0  0
 13 14  1  0  0  0  0
 13 15  1  0  0  0  0
 15 16  1  0  0  0  0
 15 17  1  0  0  0  0
  1 18  1  0  0  0  0
 15 18  1  0  0  0  0
 18 19  1  0  0  0  0
 18 20  1  0  0  0  0
 13 21  1  0  0  0  0
 21 22  1  0  0  0  0
M  END
> <VM2 Rank>
31

> <Conf_Id>
107

> <Probability>
0.15

> <Sum Probability>
99.60

> <Delta G>
2.377

> <G>
49.763

> <E>
23.136

> <-TS>
26.627

> <U+W>
5.252

> <U>
7.482

> <W>
-2.230

> <W(PB)>
-4.220

> <W(SA)>
1.990

> <Valence>
12.309

> <Coulomb>
-7.084

> <VdW>
2.257

> <VdW6>
-9.770

> <VdW12>
12.028

> <Bond>
0.284

> <Angle>
3.491

> <Pdih>
8.534

> <Idih>
0.000

> <Tether>
0.000

$$$$
VeraChem MOL file


 22 22  0  0  0  0  0  0  0  0999 V2000     
   20.0384   19.2639   20.9016 C   0  0  0  0  0  0  0  0  0  0  0  0
   19.0846   19.2924   20.3573 H   0  0  0  0  0  0  0  0  0  0  0  0
   20.8125   19.1159   20.1363 H   0  0  0  0  0  0  0  0  0  0  0  0
   20.2968   20.6400   21.5662 C   0  0  0  0  0  0  0  0  0  0  0  0
   21.2979   20.6507   22.0154 H   0  0  0  0  0  0  0  0  0  0  0  0
   20.3301   21.4066   20.7801 H   0  0  0  0  0  0  0  0  0  0  0  0
   19.2464   21.0706   22.6179 C   0  0  0  0  0  0  0  0  0  0  0  0
   18.3358   21.3996   22.0990 H   0  0  0  0  0  0  0  0  0  0  0  0
   19.6259   21.9570   23.1441 H   0  0  0  0  0  0  0  0  0  0  0  0
   18.8497   19.9922   23.6599 C   0  0  0  0  0  0  0  0  0  0  0  0
   18.3396   20.4883   24.4960 H   0  0  0  0  0  0  0  0  0  0  0  0
   18.0914   19.3308   23.2241 H   0  0  0  0  0  0  0  0  0  0  0  0
   20.0064   19.1350   24.2319 C   0  0  0  0  0  0  0  0  0  0  0  0
   19.5650   18.4618   24.9808 H   0  0  0  0  0  0  0  0  0  0  0  0
   20.7665   18.2479   23.2058 C   0  0  0  0  0  0  0  0  0  0  0  0
   21.7749   18.6422   23.0246 H   0  0  0  0  0  0  0  0  0  0  0  0
   20.9238   17.2669   23.6724 H   0  0  0  0  0  0  0  0  0  0  0  0
   20.0510   18.0299   21.8464 C   0  0  0  0  0  0  0  0  0  0  0  0
   20.5428   17.2008   21.3194 H   0  0  0  0  0  0  0  0  0  0  0  0
   19.0242   17.6835   22.0228 H   0  0  0  0  0  0  0  0  0  0  0  0
   20.9308   19.9985   24.8773 O   0  0  0  0  0  0  0  0  0  0  0  0
   21.1644   20.6703   24.2053 H   0  0  0  0  0  0  0  0  0  0  0  0
  1  2  1  0  0  0  0
  1  3  1  0  0  0  0
  1  4  1  0  0  0  0
  4  5  1  0  0  0  0
  4  6  1  0  0  0  0
  4  7  1  0  0  0  0
  7  8  1  0  0  0  0
  7  9  1  0  0  0  0
  7 10  1  0  0  0  0
 10 11  1  0  0  0  0
 10 12  1  0  0  0  0
 10 13  1  0  0  0  0
 13 14  1  0  0  0  0
 13 15  1  0  0  0  0
 15 16  1  0  0  0  0
 15 17  1  0  0  0  0
  1 18  1  0  0  0  0
 15 18  1  0  0  0  0
 18 19  1  0  0  0  0
 18 20  1  0  0  0  0
 13 21  1  0  0  0  0
 21 22  1  0  0  0  0
M  END
> <VM2 Rank>
32

> <Conf_Id>
823

> <Probability>
0.07

> <Sum Probability>
99.68

> <Delta G>
2.815

> <G>
50.202

> <E>
23.575

> <-TS>
26.627

> <U+W>
5.690

> <U>
7.208

> <W>
-1.518

> <W(PB)>
-3.531

> <W(SA)>
2.013

> <Valence>
13.629

> <Coulomb>
-9.916

> <VdW>
3.495

> <VdW6>
-10.513

> <VdW12>
14.008

> <Bond>
0.431

> <Angle>
3.722

> <Pdih>
9.476

> <Idih>
0.000

> <Tether>
0.000

$$$$
VeraChem MOL file


 22 22  0  0  0  0  0  0  0  0999 V2000     
   19.9049   19.2098   20.9137 C   0  0  0  0  0  0  0  0  0  0  0  0
   20.4738   19.8557   20.2312 H   0  0  0  0  0  0  0  0  0  0  0  0
   19.3426   18.5199   20.2697 H   0  0  0  0  0  0  0  0  0  0  0  0
   18.8738   20.0630   21.6954 C   0  0  0  0  0  0  0  0  0  0  0  0
   18.1985   20.5423   20.9735 H   0  0  0  0  0  0  0  0  0  0  0  0
   18.2296   19.4066   22.2938 H   0  0  0  0  0  0  0  0  0  0  0  0
   19.4798   21.1653   22.5967 C   0  0  0  0  0  0  0  0  0  0  0  0
   18.6805   21.5737   23.2299 H   0  0  0  0  0  0  0  0  0  0  0  0
   19.8145   21.9991   21.9648 H   0  0  0  0  0  0  0  0  0  0  0  0
   20.6668   20.7290   23.4949 C   0  0  0  0  0  0  0  0  0  0  0  0
   21.5918   20.7501   22.9065 H   0  0  0  0  0  0  0  0  0  0  0  0
   20.8130   21.4912   24.2715 H   0  0  0  0  0  0  0  0  0  0  0  0
   20.5321   19.3482   24.1842 C   0  0  0  0  0  0  0  0  0  0  0  0
   21.4250   19.2159   24.8120 H   0  0  0  0  0  0  0  0  0  0  0  0
   20.4504   18.1197   23.2345 C   0  0  0  0  0  0  0  0  0  0  0  0
   21.0900   17.3343   23.6573 H   0  0  0  0  0  0  0  0  0  0  0  0
   19.4382   17.6948   23.2366 H   0  0  0  0  0  0  0  0  0  0  0  0
   20.8956   18.3724   21.7698 C   0  0  0  0  0  0  0  0  0  0  0  0
   21.8868   18.8442   21.7630 H   0  0  0  0  0  0  0  0  0  0  0  0
   21.0404   17.4026   21.2743 H   0  0  0  0  0  0  0  0  0  0  0  0
   19.3826   19.3707   25.0179 O   0  0  0  0  0  0  0  0  0  0  0  0
   18.6492   19.6504   24.4336 H   0  0  0  0  0  0  0  0  0  0  0  0
  1  2  1  0  0  0  0
  1  3  1  0  0  0  0
  1  4  1  0  0  0  0
  4  5  1  0  0  0  0
  4  6  1  0  0  0  0
  4  7  1  0  0  0  0
  7  8  1  0  0  0  0
  7  9  1  0  0  0  0
  7 10  1  0  0  0  0
 10 11  1  0  0  0  0
 10 12  1  0  0  0  0
 10 13  1  0  0  0  0
 13 14  1  0  0  0  0
 13 15  1  0  0  0  0
 15 16  1  0  0  0  0
 15 17  1  0  0  0  0
  1 18  1  0  0  0  0
 15 18  1  0  0  0  0
 18 19  1  0  0  0  0
 18 20  1  0  0  0  0
 13 21  1  0  0  0  0
 21 22  1  0  0  0  0
M  END
> <VM2 Rank>
33

> <Conf_Id>
283

> <Probability>
0.07

> <Sum Probability>
99.75

> <Delta G>
2.827

> <G>
50.214

> <E>
23.587

> <-TS>
26.627

> <U+W>
5.703

> <U>
7.208

> <W>
-1.506

> <W(PB)>
-3.498

> <W(SA)>
1.992

> <Valence>
13.629

> <Coulomb>
-9.916

> <VdW>
3.495

> <VdW6>
-10.513

> <VdW12>
14.008

> <Bond>
0.431

> <Angle>
3.722

> <Pdih>
9.475

> <Idih>
0.000

> <Tether>
0.000

$$$$
VeraChem MOL file


 22 22  0  0  0  0  0  0  0  0999 V2000     
   19.2054   18.9357   21.4818 C   0  0  0  0  0  0  0  0  0  0  0  0
   18.3734   18.9185   22.1969 H   0  0  0  0  0  0  0  0  0  0  0  0
   18.8133   18.4495   20.5781 H   0  0  0  0  0  0  0  0  0  0  0  0
   19.5647   20.4029   21.1352 C   0  0  0  0  0  0  0  0  0  0  0  0
   20.3196   20.4174   20.3373 H   0  0  0  0  0  0  0  0  0  0  0  0
   18.6685   20.8697   20.7042 H   0  0  0  0  0  0  0  0  0  0  0  0
   20.0512   21.2897   22.3153 C   0  0  0  0  0  0  0  0  0  0  0  0
   19.6237   22.2936   22.1873 H   0  0  0  0  0  0  0  0  0  0  0  0
   21.1375   21.4345   22.2511 H   0  0  0  0  0  0  0  0  0  0  0  0
   19.6791   20.7684   23.7285 C   0  0  0  0  0  0  0  0  0  0  0  0
   19.8538   21.5769   24.4499 H   0  0  0  0  0  0  0  0  0  0  0  0
   18.5989   20.5773   23.7707 H   0  0  0  0  0  0  0  0  0  0  0  0
   20.4759   19.5264   24.2190 C   0  0  0  0  0  0  0  0  0  0  0  0
   21.2244   19.8837   24.9408 H   0  0  0  0  0  0  0  0  0  0  0  0
   21.2429   18.7396   23.1271 C   0  0  0  0  0  0  0  0  0  0  0  0
   21.9843   19.3991   22.6604 H   0  0  0  0  0  0  0  0  0  0  0  0
   21.8360   17.9560   23.6166 H   0  0  0  0  0  0  0  0  0  0  0  0
   20.3772   18.0810   22.0213 C   0  0  0  0  0  0  0  0  0  0  0  0
   21.0354   17.8090   21.1849 H   0  0  0  0  0  0  0  0  0  0  0  0
   19.9699   17.1336   22.3998 H   0  0  0  0  0  0  0  0  0  0  0  0
   19.5896   18.6343   24.8788 O   0  0  0  0  0  0  0  0  0  0  0  0
   19.0571   18.2291   24.1648 H   0  0  0  0  0  0  0  0  0  0  0  0
  1  2  1  0  0  0  0
  1  3  1  0  0  0  0
  1  4  1  0  0  0  0
  4  5  1  0  0  0  0
  4  6  1  0  0  0  0
  4  7  1  0  0  0  0
  7  8  1  0  0  0  0
  7  9  1  0  0  0  0
  7 10  1  0  0  0  0
 10 11  1  0  0  0  0
 10 12  1  0  0  0  0
 10 13  1  0  0  0  0
 13 14  1  0  0  0  0
 13 15  1  0  0  0  0
 15 16  1  0  0  0  0
 15 17  1  0  0  0  0
  1 18  1  0  0  0  0
 15 18  1  0  0  0  0
 18 19  1  0  0  0  0
 18 20  1  0  0  0  0
 13 21  1  0  0  0  0
 21 22  1  0  0  0  0
M  END
> <VM2 Rank>
34

> <Conf_Id>
241

> <Probability>
0.07

> <Sum Probability>
99.82

> <Delta G>
2.833

> <G>
50.220

> <E>
23.593

> <-TS>
26.626

> <U+W>
5.708

> <U>
7.208

> <W>
-1.500

> <W(PB)>
-3.490

> <W(SA)>
1.989

> <Valence>
13.629

> <Coulomb>
-9.916

> <VdW>
3.495

> <VdW6>
-10.513

> <VdW12>
14.008

> <Bond>
0.431

> <Angle>
3.722

> <Pdih>
9.476

> <Idih>
0.000

> <Tether>
0.000

$$$$
VeraChem MOL file


 22 22  0  0  0  0  0  0  0  0999 V2000     
   19.2183   18.9424   21.4490 C   0  0  0  0  0  0  0  0  0  0  0  0
   18.8491   18.4618   20.5329 H   0  0  0  0  0  0  0  0  0  0  0  0
   18.3654   18.9311   22.1397 H   0  0  0  0  0  0  0  0  0  0  0  0
   19.6080   20.4067   21.1193 C   0  0  0  0  0  0  0  0  0  0  0  0
   20.4112   20.4120   20.3701 H   0  0  0  0  0  0  0  0  0  0  0  0
   18.7438   20.8770   20.6305 H   0  0  0  0  0  0  0  0  0  0  0  0
   20.0244   21.2977   22.3244 C   0  0  0  0  0  0  0  0  0  0  0  0
   19.5590   22.2847   22.1976 H   0  0  0  0  0  0  0  0  0  0  0  0
   21.1056   21.4864   22.2918 H   0  0  0  0  0  0  0  0  0  0  0  0
   19.6391   20.7447   23.7224 C   0  0  0  0  0  0  0  0  0  0  0  0
   19.7596   21.5497   24.4585 H   0  0  0  0  0  0  0  0  0  0  0  0
   18.5687   20.5026   23.7371 H   0  0  0  0  0  0  0  0  0  0  0  0
   20.4760   19.5319   24.2150 C   0  0  0  0  0  0  0  0  0  0  0  0
   21.2411   19.9243   24.9004 H   0  0  0  0  0  0  0  0  0  0  0  0
   21.2332   18.7428   23.1165 C   0  0  0  0  0  0  0  0  0  0  0  0
   21.9577   19.4083   22.6319 H   0  0  0  0  0  0  0  0  0  0  0  0
   21.8449   17.9690   23.5979 H   0  0  0  0  0  0  0  0  0  0  0  0
   20.3579   18.0707   22.0281 C   0  0  0  0  0  0  0  0  0  0  0  0
   21.0137   17.7482   21.2081 H   0  0  0  0  0  0  0  0  0  0  0  0
   19.9150   17.1536   22.4397 H   0  0  0  0  0  0  0  0  0  0  0  0
   19.6291   18.6411   24.9323 O   0  0  0  0  0  0  0  0  0  0  0  0
   20.1771   17.8653   25.1696 H   0  0  0  0  0  0  0  0  0  0  0  0
  1  2  1  0  0  0  0
  1  3  1  0  0  0  0
  1  4  1  0  0  0  0
  4  5  1  0  0  0  0
  4  6  1  0  0  0  0
  4  7  1  0  0  0  0
  7  8  1  0  0  0  0
  7  9  1  0  0  0  0
  7 10  1  0  0  0  0
 10 11  1  0  0  0  0
 10 12  1  0  0  0  0
 10 13  1  0  0  0  0
 13 14  1  0  0  0  0
 13 15  1  0  0  0  0
 15 16  1  0  0  0  0
 15 17  1  0  0  0  0
  1 18  1  0  0  0  0
 15 18  1  0  0  0  0
 18 19  1  0  0  0  0
 18 20  1  0  0  0  0
 13 21  1  0  0  0  0
 21 22  1  0  0  0  0
M  END
> <VM2 Rank>
35

> <Conf_Id>
71

> <Probability>
0.03

> <Sum Probability>
99.85

> <Delta G>
3.396

> <G>
50.783

> <E>
24.515

> <-TS>
26.268

> <U+W>
6.630

> <U>
8.892

> <W>
-2.262

> <W(PB)>
-4.259

> <W(SA)>
1.996

> <Valence>
13.213

> <Coulomb>
-7.892

> <VdW>
3.571

> <VdW6>
-10.255

> <VdW12>
13.826

> <Bond>
0.437

> <Angle>
3.615

> <Pdih>
9.161

> <Idih>
0.000

> <Tether>
0.000

$$$$
VeraChem MOL file


 22 22  0  0  0  0  0  0  0  0999 V2000     
   19.9461   19.2340   20.9015 C   0  0  0  0  0  0  0  0  0  0  0  0
   20.5534   19.8993   20.2730 H   0  0  0  0  0  0  0  0  0  0  0  0
   19.4116   18.5742   20.2045 H   0  0  0  0  0  0  0  0  0  0  0  0
   18.8835   20.0690   21.6621 C   0  0  0  0  0  0  0  0  0  0  0  0
   18.2276   20.5562   20.9280 H   0  0  0  0  0  0  0  0  0  0  0  0
   18.2251   19.4017   22.2329 H   0  0  0  0  0  0  0  0  0  0  0  0
   19.4503   21.1579   22.6038 C   0  0  0  0  0  0  0  0  0  0  0  0
   18.6371   21.5087   23.2536 H   0  0  0  0  0  0  0  0  0  0  0  0
   19.7543   22.0265   22.0042 H   0  0  0  0  0  0  0  0  0  0  0  0
   20.6519   20.7284   23.4836 C   0  0  0  0  0  0  0  0  0  0  0  0
   21.5646   20.7469   22.8759 H   0  0  0  0  0  0  0  0  0  0  0  0
   20.8132   21.4963   24.2511 H   0  0  0  0  0  0  0  0  0  0  0  0
   20.5341   19.3482   24.1793 C   0  0  0  0  0  0  0  0  0  0  0  0
   21.4558   19.2141   24.7638 H   0  0  0  0  0  0  0  0  0  0  0  0
   20.4108   18.1217   23.2336 C   0  0  0  0  0  0  0  0  0  0  0  0
   21.0078   17.3092   23.6671 H   0  0  0  0  0  0  0  0  0  0  0  0
   19.3797   17.7457   23.2266 H   0  0  0  0  0  0  0  0  0  0  0  0
   20.8858   18.3536   21.7743 C   0  0  0  0  0  0  0  0  0  0  0  0
   21.8962   18.7832   21.7833 H   0  0  0  0  0  0  0  0  0  0  0  0
   20.9954   17.3776   21.2823 H   0  0  0  0  0  0  0  0  0  0  0  0
   19.4234   19.3651   25.0688 O   0  0  0  0  0  0  0  0  0  0  0  0
   19.5054   20.1821   25.6021 H   0  0  0  0  0  0  0  0  0  0  0  0
  1  2  1  0  0  0  0
  1  3  1  0  0  0  0
  1  4  1  0  0  0  0
  4  5  1  0  0  0  0
  4  6  1  0  0  0  0
  4  7  1  0  0  0  0
  7  8  1  0  0  0  0
  7  9  1  0  0  0  0
  7 10  1  0  0  0  0
 10 11  1  0  0  0  0
 10 12  1  0  0  0  0
 10 13  1  0  0  0  0
 13 14  1  0  0  0  0
 13 15  1  0  0  0  0
 15 16  1  0  0  0  0
 15 17  1  0  0  0  0
  1 18  1  0  0  0  0
 15 18  1  0  0  0  0
 18 19  1  0  0  0  0
 18 20  1  0  0  0  0
 13 21  1  0  0  0  0
 21 22  1  0  0  0  0
M  END
> <VM2 Rank>
36

> <Conf_Id>
732

> <Probability>
0.03

> <Sum Probability>
99.88

> <Delta G>
3.398

> <G>
50.785

> <E>
24.517

> <-TS>
26.268

> <U+W>
6.632

> <U>
8.892

> <W>
-2.260

> <W(PB)>
-4.261

> <W(SA)>
2.002

> <Valence>
13.213

> <Coulomb>
-7.892

> <VdW>
3.571

> <VdW6>
-10.254

> <VdW12>
13.825

> <Bond>
0.437

> <Angle>
3.616

> <Pdih>
9.160

> <Idih>
0.000

> <Tether>
0.000

$$$$
VeraChem MOL file


 22 22  0  0  0  0  0  0  0  0999 V2000     
   20.1134   19.1494   20.8486 C   0  0  0  0  0  0  0  0  0  0  0  0
   21.0557   18.8756   20.3549 H   0  0  0  0  0  0  0  0  0  0  0  0
   19.3363   19.0751   20.0756 H   0  0  0  0  0  0  0  0  0  0  0  0
   20.2136   20.6219   21.3155 C   0  0  0  0  0  0  0  0  0  0  0  0
   21.2198   20.8153   21.7083 H   0  0  0  0  0  0  0  0  0  0  0  0
   20.1276   21.2679   20.4311 H   0  0  0  0  0  0  0  0  0  0  0  0
   19.1478   21.0596   22.3536 C   0  0  0  0  0  0  0  0  0  0  0  0
   18.1447   20.9270   21.9260 H   0  0  0  0  0  0  0  0  0  0  0  0
   19.2617   22.1408   22.5119 H   0  0  0  0  0  0  0  0  0  0  0  0
   19.2111   20.3579   23.7422 C   0  0  0  0  0  0  0  0  0  0  0  0
   19.0853   21.1242   24.5187 H   0  0  0  0  0  0  0  0  0  0  0  0
   18.3510   19.6864   23.8585 H   0  0  0  0  0  0  0  0  0  0  0  0
   20.5104   19.5681   24.0314 C   0  0  0  0  0  0  0  0  0  0  0  0
   21.3658   20.2131   23.7885 H   0  0  0  0  0  0  0  0  0  0  0  0
   20.6442   18.2356   23.2429 C   0  0  0  0  0  0  0  0  0  0  0  0
   21.7020   18.0790   22.9952 H   0  0  0  0  0  0  0  0  0  0  0  0
   20.3619   17.4015   23.8995 H   0  0  0  0  0  0  0  0  0  0  0  0
   19.7960   18.1101   21.9498 C   0  0  0  0  0  0  0  0  0  0  0  0
   19.9440   17.1061   21.5295 H   0  0  0  0  0  0  0  0  0  0  0  0
   18.7285   18.1595   22.2006 H   0  0  0  0  0  0  0  0  0  0  0  0
   20.5495   19.2754   25.4230 O   0  0  0  0  0  0  0  0  0  0  0  0
   21.4034   18.8248   25.5923 H   0  0  0  0  0  0  0  0  0  0  0  0
  1  2  1  0  0  0  0
  1  3  1  0  0  0  0
  1  4  1  0  0  0  0
  4  5  1  0  0  0  0
  4  6  1  0  0  0  0
  4  7  1  0  0  0  0
  7  8  1  0  0  0  0
  7  9  1  0  0  0  0
  7 10  1  0  0  0  0
 10 11  1  0  0  0  0
 10 12  1  0  0  0  0
 10 13  1  0  0  0  0
 13 14  1  0  0  0  0
 13 15  1  0  0  0  0
 15 16  1  0  0  0  0
 15 17  1  0  0  0  0
  1 18  1  0  0  0  0
 15 18  1  0  0  0  0
 18 19  1  0  0  0  0
 18 20  1  0  0  0  0
 13 21  1  0  0  0  0
 21 22  1  0  0  0  0
M  END
> <VM2 Rank>
37

> <Conf_Id>
373

> <Probability>
0.02

> <Sum Probability>
99.90

> <Delta G>
3.576

> <G>
50.963

> <E>
24.145

> <-TS>
26.818

> <U+W>
6.260

> <U>
8.574

> <W>
-2.313

> <W(PB)>
-4.337

> <W(SA)>
2.023

> <Valence>
13.346

> <Coulomb>
-8.599

> <VdW>
3.827

> <VdW6>
-9.679

> <VdW12>
13.506

> <Bond>
0.433

> <Angle>
3.364

> <Pdih>
9.549

> <Idih>
0.000

> <Tether>
0.000

$$$$
VeraChem MOL file


 22 22  0  0  0  0  0  0  0  0999 V2000     
   20.6322   19.3453   21.0814 C   0  0  0  0  0  0  0  0  0  0  0  0
   21.6029   19.6450   21.4962 H   0  0  0  0  0  0  0  0  0  0  0  0
   20.8396   19.0949   20.0321 H   0  0  0  0  0  0  0  0  0  0  0  0
   19.6627   20.5518   21.1065 C   0  0  0  0  0  0  0  0  0  0  0  0
   20.2237   21.4553   20.8316 H   0  0  0  0  0  0  0  0  0  0  0  0
   18.9077   20.4158   20.3202 H   0  0  0  0  0  0  0  0  0  0  0  0
   18.9243   20.7993   22.4434 C   0  0  0  0  0  0  0  0  0  0  0  0
   18.1084   20.0726   22.5489 H   0  0  0  0  0  0  0  0  0  0  0  0
   18.4290   21.7781   22.3877 H   0  0  0  0  0  0  0  0  0  0  0  0
   19.8200   20.7688   23.7100 C   0  0  0  0  0  0  0  0  0  0  0  0
   20.5670   21.5699   23.6409 H   0  0  0  0  0  0  0  0  0  0  0  0
   19.1815   21.0252   24.5662 H   0  0  0  0  0  0  0  0  0  0  0  0
   20.5522   19.4306   24.0073 C   0  0  0  0  0  0  0  0  0  0  0  0
   21.5922   19.5094   23.6623 H   0  0  0  0  0  0  0  0  0  0  0  0
   19.9142   18.1875   23.3415 C   0  0  0  0  0  0  0  0  0  0  0  0
   20.3288   17.2856   23.8110 H   0  0  0  0  0  0  0  0  0  0  0  0
   18.8423   18.1671   23.5753 H   0  0  0  0  0  0  0  0  0  0  0  0
   20.1201   18.0713   21.8023 C   0  0  0  0  0  0  0  0  0  0  0  0
   20.8457   17.2681   21.6147 H   0  0  0  0  0  0  0  0  0  0  0  0
   19.1829   17.7388   21.3356 H   0  0  0  0  0  0  0  0  0  0  0  0
   20.5603   19.2233   25.4147 O   0  0  0  0  0  0  0  0  0  0  0  0
   21.0165   19.9953   25.8107 H   0  0  0  0  0  0  0  0  0  0  0  0
  1  2  1  0  0  0  0
  1  3  1  0  0  0  0
  1  4  1  0  0  0  0
  4  5  1  0  0  0  0
  4  6  1  0  0  0  0
  4  7  1  0  0  0  0
  7  8  1  0  0  0  0
  7  9  1  0  0  0  0
  7 10  1  0  0  0  0
 10 11  1  0  0  0  0
 10 12  1  0  0  0  0
 10 13  1  0  0  0  0
 13 14  1  0  0  0  0
 13 15  1  0  0  0  0
 15 16  1  0  0  0  0
 15 17  1  0  0  0  0
  1 18  1  0  0  0  0
 15 18  1  0  0  0  0
 18 19  1  0  0  0  0
 18 20  1  0  0  0  0
 13 21  1  0  0  0  0
 21 22  1  0  0  0  0
M  END
> <VM2 Rank>
38

> <Conf_Id>
588

> <Probability>
0.02

> <Sum Probability>
99.92

> <Delta G>
3.629

> <G>
51.016

> <E>
24.167

> <-TS>
26.849

> <U+W>
6.282

> <U>
8.574

> <W>
-2.291

> <W(PB)>
-4.303

> <W(SA)>
2.012

> <Valence>
13.346

> <Coulomb>
-8.599

> <VdW>
3.827

> <VdW6>
-9.679

> <VdW12>
13.506

> <Bond>
0.433

> <Angle>
3.364

> <Pdih>
9.549

> <Idih>
0.000

> <Tether>
0.000

$$$$
VeraChem MOL file


 22 22  0  0  0  0  0  0  0  0999 V2000     
   20.0874   19.1460   20.8461 C   0  0  0  0  0  0  0  0  0  0  0  0
   21.0114   18.8676   20.3212 H   0  0  0  0  0  0  0  0  0  0  0  0
   19.2851   19.0793   20.0987 H   0  0  0  0  0  0  0  0  0  0  0  0
   20.2162   20.6155   21.3141 C   0  0  0  0  0  0  0  0  0  0  0  0
   21.2274   20.7890   21.7034 H   0  0  0  0  0  0  0  0  0  0  0  0
   20.1385   21.2643   20.4310 H   0  0  0  0  0  0  0  0  0  0  0  0
   19.1632   21.0719   22.3569 C   0  0  0  0  0  0  0  0  0  0  0  0
   18.1565   20.9720   21.9289 H   0  0  0  0  0  0  0  0  0  0  0  0
   19.3083   22.1477   22.5258 H   0  0  0  0  0  0  0  0  0  0  0  0
   19.2071   20.3547   23.7377 C   0  0  0  0  0  0  0  0  0  0  0  0
   19.0564   21.1127   24.5175 H   0  0  0  0  0  0  0  0  0  0  0  0
   18.3509   19.6745   23.8298 H   0  0  0  0  0  0  0  0  0  0  0  0
   20.5091   19.5719   24.0364 C   0  0  0  0  0  0  0  0  0  0  0  0
   21.3636   20.2244   23.8100 H   0  0  0  0  0  0  0  0  0  0  0  0
   20.6669   18.2486   23.2357 C   0  0  0  0  0  0  0  0  0  0  0  0
   21.7251   18.1241   22.9727 H   0  0  0  0  0  0  0  0  0  0  0  0
   20.4222   17.4041   23.8939 H   0  0  0  0  0  0  0  0  0  0  0  0
   19.8025   18.1049   21.9547 C   0  0  0  0  0  0  0  0  0  0  0  0
   19.9618   17.1024   21.5349 H   0  0  0  0  0  0  0  0  0  0  0  0
   18.7380   18.1361   22.2198 H   0  0  0  0  0  0  0  0  0  0  0  0
   20.5335   19.2645   25.4253 O   0  0  0  0  0  0  0  0  0  0  0  0
   20.4947   20.1186   25.9045 H   0  0  0  0  0  0  0  0  0  0  0  0
  1  2  1  0  0  0  0
  1  3  1  0  0  0  0
  1  4  1  0  0  0  0
  4  5  1  0  0  0  0
  4  6  1  0  0  0  0
  4  7  1  0  0  0  0
  7  8  1  0  0  0  0
  7  9  1  0  0  0  0
  7 10  1  0  0  0  0
 10 11  1  0  0  0  0
 10 12  1  0  0  0  0
 10 13  1  0  0  0  0
 13 14  1  0  0  0  0
 13 15  1  0  0  0  0
 15 16  1  0  0  0  0
 15 17  1  0  0  0  0
  1 18  1  0  0  0  0
 15 18  1  0  0  0  0
 18 19  1  0  0  0  0
 18 20  1  0  0  0  0
 13 21  1  0  0  0  0
 21 22  1  0  0  0  0
M  END
> <VM2 Rank>
39

> <Conf_Id>
169

> <Probability>
0.02

> <Sum Probability>
99.93

> <Delta G>
3.653

> <G>
51.040

> <E>
24.229

> <-TS>
26.810

> <U+W>
6.345

> <U>
8.610

> <W>
-2.265

> <W(PB)>
-4.271

> <W(SA)>
2.006

> <Valence>
13.313

> <Coulomb>
-8.545

> <VdW>
3.842

> <VdW6>
-9.685

> <VdW12>
13.527

> <Bond>
0.435

> <Angle>
3.375

> <Pdih>
9.503

> <Idih>
0.000

> <Tether>
0.000

$$$$
VeraChem MOL file


 22 22  0  0  0  0  0  0  0  0999 V2000     
   20.6307   19.3523   21.0823 C   0  0  0  0  0  0  0  0  0  0  0  0
   21.5940   19.6704   21.5007 H   0  0  0  0  0  0  0  0  0  0  0  0
   20.8464   19.1042   20.0341 H   0  0  0  0  0  0  0  0  0  0  0  0
   19.6402   20.5412   21.1029 C   0  0  0  0  0  0  0  0  0  0  0  0
   20.1812   21.4480   20.8000 H   0  0  0  0  0  0  0  0  0  0  0  0
   18.8724   20.3781   20.3343 H   0  0  0  0  0  0  0  0  0  0  0  0
   18.9263   20.8045   22.4501 C   0  0  0  0  0  0  0  0  0  0  0  0
   18.1046   20.0876   22.5740 H   0  0  0  0  0  0  0  0  0  0  0  0
   18.4400   21.7879   22.3958 H   0  0  0  0  0  0  0  0  0  0  0  0
   19.8431   20.7736   23.7021 C   0  0  0  0  0  0  0  0  0  0  0  0
   20.6058   21.5572   23.6102 H   0  0  0  0  0  0  0  0  0  0  0  0
   19.2280   21.0566   24.5670 H   0  0  0  0  0  0  0  0  0  0  0  0
   20.5539   19.4258   24.0104 C   0  0  0  0  0  0  0  0  0  0  0  0
   21.5987   19.4946   23.6777 H   0  0  0  0  0  0  0  0  0  0  0  0
   19.9096   18.1889   23.3379 C   0  0  0  0  0  0  0  0  0  0  0  0
   20.3011   17.2783   23.8100 H   0  0  0  0  0  0  0  0  0  0  0  0
   18.8336   18.1838   23.5531 H   0  0  0  0  0  0  0  0  0  0  0  0
   20.1396   18.0701   21.8029 C   0  0  0  0  0  0  0  0  0  0  0  0
   20.8878   17.2847   21.6292 H   0  0  0  0  0  0  0  0  0  0  0  0
   19.2174   17.7119   21.3254 H   0  0  0  0  0  0  0  0  0  0  0  0
   20.5426   19.2216   25.4184 O   0  0  0  0  0  0  0  0  0  0  0  0
   21.0490   18.4000   25.5889 H   0  0  0  0  0  0  0  0  0  0  0  0
  1  2  1  0  0  0  0
  1  3  1  0  0  0  0
  1  4  1  0  0  0  0
  4  5  1  0  0  0  0
  4  6  1  0  0  0  0
  4  7  1  0  0  0  0
  7  8  1  0  0  0  0
  7  9  1  0  0  0  0
  7 10  1  0  0  0  0
 10 11  1  0  0  0  0
 10 12  1  0  0  0  0
 10 13  1  0  0  0  0
 13 14  1  0  0  0  0
 13 15  1  0  0  0  0
 15 16  1  0  0  0  0
 15 17  1  0  0  0  0
  1 18  1  0  0  0  0
 15 18  1  0  0  0  0
 18 19  1  0  0  0  0
 18 20  1  0  0  0  0
 13 21  1  0  0  0  0
 21 22  1  0  0  0  0
M  END
> <VM2 Rank>
40

> <Conf_Id>
735

> <Probability>
0.02

> <Sum Probability>
99.95

> <Delta G>
3.655

> <G>
51.041

> <E>
24.192

> <-TS>
26.849

> <U+W>
6.308

> <U>
8.609

> <W>
-2.302

> <W(PB)>
-4.320

> <W(SA)>
2.019

> <Valence>
13.314

> <Coulomb>
-8.546

> <VdW>
3.841

> <VdW6>
-9.685

> <VdW12>
13.526

> <Bond>
0.435

> <Angle>
3.374

> <Pdih>
9.505

> <Idih>
0.000

> <Tether>
0.000

$$$$
VeraChem MOL file


 22 22  0  0  0  0  0  0  0  0999 V2000     
   20.5324   19.4081   21.0196 C   0  0  0  0  0  0  0  0  0  0  0  0
   21.4510   19.9268   21.3227 H   0  0  0  0  0  0  0  0  0  0  0  0
   20.6765   19.1704   19.9569 H   0  0  0  0  0  0  0  0  0  0  0  0
   19.3218   20.3669   21.1509 C   0  0  0  0  0  0  0  0  0  0  0  0
   19.5168   21.2357   20.5074 H   0  0  0  0  0  0  0  0  0  0  0  0
   18.4251   19.8858   20.7372 H   0  0  0  0  0  0  0  0  0  0  0  0
   19.0088   20.8856   22.5818 C   0  0  0  0  0  0  0  0  0  0  0  0
   18.1447   20.3499   22.9957 H   0  0  0  0  0  0  0  0  0  0  0  0
   18.6818   21.9313   22.5031 H   0  0  0  0  0  0  0  0  0  0  0  0
   20.1926   20.8089   23.5820 C   0  0  0  0  0  0  0  0  0  0  0  0
   21.0720   21.2903   23.1363 H   0  0  0  0  0  0  0  0  0  0  0  0
   19.9461   21.4265   24.4562 H   0  0  0  0  0  0  0  0  0  0  0  0
   20.5821   19.3816   24.0669 C   0  0  0  0  0  0  0  0  0  0  0  0
   21.6763   19.2905   24.0077 H   0  0  0  0  0  0  0  0  0  0  0  0
   19.9560   18.2043   23.2780 C   0  0  0  0  0  0  0  0  0  0  0  0
   20.2045   17.2636   23.7865 H   0  0  0  0  0  0  0  0  0  0  0  0
   18.8623   18.2713   23.3211 H   0  0  0  0  0  0  0  0  0  0  0  0
   20.4079   18.0793   21.8016 C   0  0  0  0  0  0  0  0  0  0  0  0
   21.3817   17.5718   21.7697 H   0  0  0  0  0  0  0  0  0  0  0  0
   19.7057   17.4170   21.2772 H   0  0  0  0  0  0  0  0  0  0  0  0
   20.1844   19.2433   25.4262 O   0  0  0  0  0  0  0  0  0  0  0  0
   20.4917   18.3612   25.7223 H   0  0  0  0  0  0  0  0  0  0  0  0
  1  2  1  0  0  0  0
  1  3  1  0  0  0  0
  1  4  1  0  0  0  0
  4  5  1  0  0  0  0
  4  6  1  0  0  0  0
  4  7  1  0  0  0  0
  7  8  1  0  0  0  0
  7  9  1  0  0  0  0
  7 10  1  0  0  0  0
 10 11  1  0  0  0  0
 10 12  1  0  0  0  0
 10 13  1  0  0  0  0
 13 14  1  0  0  0  0
 13 15  1  0  0  0  0
 15 16  1  0  0  0  0
 15 17  1  0  0  0  0
  1 18  1  0  0  0  0
 15 18  1  0  0  0  0
 18 19  1  0  0  0  0
 18 20  1  0  0  0  0
 13 21  1  0  0  0  0
 21 22  1  0  0  0  0
M  END
> <VM2 Rank>
41

> <Conf_Id>
205

> <Probability>
0.02

> <Sum Probability>
99.97

> <Delta G>
3.723

> <G>
51.109

> <E>
24.308

> <-TS>
26.802

> <U+W>
6.423

> <U>
8.781

> <W>
-2.358

> <W(PB)>
-4.373

> <W(SA)>
2.016

> <Valence>
13.328

> <Coulomb>
-8.388

> <VdW>
3.840

> <VdW6>
-9.744

> <VdW12>
13.584

> <Bond>
0.436

> <Angle>
3.477

> <Pdih>
9.415

> <Idih>
0.000

> <Tether>
0.000

$$$$
VeraChem MOL file


 22 22  0  0  0  0  0  0  0  0999 V2000     
   19.7271   19.0843   20.9162 C   0  0  0  0  0  0  0  0  0  0  0  0
   20.3052   18.7459   20.0455 H   0  0  0  0  0  0  0  0  0  0  0  0
   18.6760   19.0742   20.5975 H   0  0  0  0  0  0  0  0  0  0  0  0
   20.1610   20.5395   21.2272 C   0  0  0  0  0  0  0  0  0  0  0  0
   21.2386   20.5693   21.4338 H   0  0  0  0  0  0  0  0  0  0  0  0
   20.0277   21.1453   20.3206 H   0  0  0  0  0  0  0  0  0  0  0  0
   19.3943   21.2223   22.3841 C   0  0  0  0  0  0  0  0  0  0  0  0
   18.3896   21.4989   22.0367 H   0  0  0  0  0  0  0  0  0  0  0  0
   19.9023   22.1674   22.6198 H   0  0  0  0  0  0  0  0  0  0  0  0
   19.2529   20.3914   23.6838 C   0  0  0  0  0  0  0  0  0  0  0  0
   18.9768   21.0787   24.4940 H   0  0  0  0  0  0  0  0  0  0  0  0
   18.4019   19.7063   23.5887 H   0  0  0  0  0  0  0  0  0  0  0  0
   20.5153   19.5991   24.1064 C   0  0  0  0  0  0  0  0  0  0  0  0
   21.3511   20.3080   24.1963 H   0  0  0  0  0  0  0  0  0  0  0  0
   20.9560   18.4576   23.1439 C   0  0  0  0  0  0  0  0  0  0  0  0
   21.8977   18.7401   22.6570 H   0  0  0  0  0  0  0  0  0  0  0  0
   21.2022   17.5670   23.7377 H   0  0  0  0  0  0  0  0  0  0  0  0
   19.9241   18.0499   22.0591 C   0  0  0  0  0  0  0  0  0  0  0  0
   20.2429   17.0996   21.6097 H   0  0  0  0  0  0  0  0  0  0  0  0
   18.9606   17.8279   22.5358 H   0  0  0  0  0  0  0  0  0  0  0  0
   20.2553   19.0339   25.3863 O   0  0  0  0  0  0  0  0  0  0  0  0
   20.0366   19.7783   25.9849 H   0  0  0  0  0  0  0  0  0  0  0  0
  1  2  1  0  0  0  0
  1  3  1  0  0  0  0
  1  4  1  0  0  0  0
  4  5  1  0  0  0  0
  4  6  1  0  0  0  0
  4  7  1  0  0  0  0
  7  8  1  0  0  0  0
  7  9  1  0  0  0  0
  7 10  1  0  0  0  0
 10 11  1  0  0  0  0
 10 12  1  0  0  0  0
 10 13  1  0  0  0  0
 13 14  1  0  0  0  0
 13 15  1  0  0  0  0
 15 16  1  0  0  0  0
 15 17  1  0  0  0  0
  1 18  1  0  0  0  0
 15 18  1  0  0  0  0
 18 19  1  0  0  0  0
 18 20  1  0  0  0  0
 13 21  1  0  0  0  0
 21 22  1  0  0  0  0
M  END
> <VM2 Rank>
42

> <Conf_Id>
752

> <Probability>
0.02

> <Sum Probability>
99.98

> <Delta G>
3.732

> <G>
51.119

> <E>
24.304

> <-TS>
26.816

> <U+W>
6.419

> <U>
8.781

> <W>
-2.362

> <W(PB)>
-4.380

> <W(SA)>
2.018

> <Valence>
13.329

> <Coulomb>
-8.387

> <VdW>
3.839

> <VdW6>
-9.745

> <VdW12>
13.585

> <Bond>
0.436

> <Angle>
3.478

> <Pdih>
9.415

> <Idih>
0.000

> <Tether>
0.000

$$$$
VeraChem MOL file


 22 22  0  0  0  0  0  0  0  0999 V2000     
   20.2557   19.3875   20.8977 C   0  0  0  0  0  0  0  0  0  0  0  0
   21.0793   20.1006   20.7606 H   0  0  0  0  0  0  0  0  0  0  0  0
   20.0467   18.9972   19.8923 H   0  0  0  0  0  0  0  0  0  0  0  0
   19.0012   20.1419   21.4066 C   0  0  0  0  0  0  0  0  0  0  0  0
   18.6154   20.7722   20.5938 H   0  0  0  0  0  0  0  0  0  0  0  0
   18.1994   19.4207   21.6123 H   0  0  0  0  0  0  0  0  0  0  0  0
   19.2338   21.0438   22.6515 C   0  0  0  0  0  0  0  0  0  0  0  0
   18.3502   20.9949   23.3025 H   0  0  0  0  0  0  0  0  0  0  0  0
   19.2960   22.0864   22.3116 H   0  0  0  0  0  0  0  0  0  0  0  0
   20.5084   20.7462   23.4868 C   0  0  0  0  0  0  0  0  0  0  0  0
   21.3991   20.8854   22.8624 H   0  0  0  0  0  0  0  0  0  0  0  0
   20.5976   21.5077   24.2723 H   0  0  0  0  0  0  0  0  0  0  0  0
   20.5729   19.3481   24.1448 C   0  0  0  0  0  0  0  0  0  0  0  0
   21.6129   19.1836   24.4619 H   0  0  0  0  0  0  0  0  0  0  0  0
   20.1602   18.1672   23.2373 C   0  0  0  0  0  0  0  0  0  0  0  0
   20.4987   17.2409   23.7188 H   0  0  0  0  0  0  0  0  0  0  0  0
   19.0662   18.0914   23.2086 H   0  0  0  0  0  0  0  0  0  0  0  0
   20.7229   18.2028   21.7907 C   0  0  0  0  0  0  0  0  0  0  0  0
   21.8208   18.1850   21.8230 H   0  0  0  0  0  0  0  0  0  0  0  0
   20.4260   17.2671   21.2977 H   0  0  0  0  0  0  0  0  0  0  0  0
   19.7308   19.3406   25.2916 O   0  0  0  0  0  0  0  0  0  0  0  0
   20.0128   20.0917   25.8534 H   0  0  0  0  0  0  0  0  0  0  0  0
  1  2  1  0  0  0  0
  1  3  1  0  0  0  0
  1  4  1  0  0  0  0
  4  5  1  0  0  0  0
  4  6  1  0  0  0  0
  4  7  1  0  0  0  0
  7  8  1  0  0  0  0
  7  9  1  0  0  0  0
  7 10  1  0  0  0  0
 10 11  1  0  0  0  0
 10 12  1  0  0  0  0
 10 13  1  0  0  0  0
 13 14  1  0  0  0  0
 13 15  1  0  0  0  0
 15 16  1  0  0  0  0
 15 17  1  0  0  0  0
  1 18  1  0  0  0  0
 15 18  1  0  0  0  0
 18 19  1  0  0  0  0
 18 20  1  0  0  0  0
 13 21  1  0  0  0  0
 21 22  1  0  0  0  0
M  END
> <VM2 Rank>
43

> <Conf_Id>
115

> <Probability>
0.01

> <Sum Probability>
100.00

> <Delta G>
3.829

> <G>
51.215

> <E>
24.417

> <-TS>
26.798

> <U+W>
6.532

> <U>
8.919

> <W>
-2.387

> <W(PB)>
-4.390

> <W(SA)>
2.003

> <Valence>
13.464

> <Coulomb>
-8.153

> <VdW>
3.608

> <VdW6>
-9.940

> <VdW12>
13.548

> <Bond>
0.437

> <Angle>
3.544

> <Pdih>
9.483

> <Idih>
0.000

> <Tether>
0.000

$$$$
VeraChem MOL file


 22 22  0  0  0  0  0  0  0  0999 V2000     
   19.3082   18.8167   21.4219 C   0  0  0  0  0  0  0  0  0  0  0  0
   19.1545   18.6230   20.3513 H   0  0  0  0  0  0  0  0  0  0  0  0
   18.6057   18.1461   21.9346 H   0  0  0  0  0  0  0  0  0  0  0  0
   18.9304   20.3017   21.6975 C   0  0  0  0  0  0  0  0  0  0  0  0
   18.6130   20.7507   20.7462 H   0  0  0  0  0  0  0  0  0  0  0  0
   18.0443   20.3529   22.3442 H   0  0  0  0  0  0  0  0  0  0  0  0
   20.0553   21.1903   22.2871 C   0  0  0  0  0  0  0  0  0  0  0  0
   19.7251   22.2374   22.2496 H   0  0  0  0  0  0  0  0  0  0  0  0
   20.9357   21.1554   21.6334 H   0  0  0  0  0  0  0  0  0  0  0  0
   20.4753   20.8765   23.7499 C   0  0  0  0  0  0  0  0  0  0  0  0
   21.4886   21.2679   23.9073 H   0  0  0  0  0  0  0  0  0  0  0  0
   19.8326   21.4549   24.4269 H   0  0  0  0  0  0  0  0  0  0  0  0
   20.4411   19.4017   24.2209 C   0  0  0  0  0  0  0  0  0  0  0  0
   20.9772   19.3601   25.1799 H   0  0  0  0  0  0  0  0  0  0  0  0
   21.1133   18.3676   23.2845 C   0  0  0  0  0  0  0  0  0  0  0  0
   22.2020   18.4623   23.3870 H   0  0  0  0  0  0  0  0  0  0  0  0
   20.8718   17.3675   23.6686 H   0  0  0  0  0  0  0  0  0  0  0  0
   20.7626   18.4100   21.7712 C   0  0  0  0  0  0  0  0  0  0  0  0
   20.9528   17.4117   21.3542 H   0  0  0  0  0  0  0  0  0  0  0  0
   21.4671   19.0669   21.2461 H   0  0  0  0  0  0  0  0  0  0  0  0
   19.0999   19.0137   24.4739 O   0  0  0  0  0  0  0  0  0  0  0  0
   18.6691   19.0666   23.5973 H   0  0  0  0  0  0  0  0  0  0  0  0
  1  2  1  0  0  0  0
  1  3  1  0  0  0  0
  1  4  1  0  0  0  0
  4  5  1  0  0  0  0
  4  6  1  0  0  0  0
  4  7  1  0  0  0  0
  7  8  1  0  0  0  0
  7  9  1  0  0  0  0
  7 10  1  0  0  0  0
 10 11  1  0  0  0  0
 10 12  1  0  0  0  0
 10 13  1  0  0  0  0
 13 14  1  0  0  0  0
 13 15  1  0  0  0  0
 15 16  1  0  0  0  0
 15 17  1  0  0  0  0
  1 18  1  0  0  0  0
 15 18  1  0  0  0  0
 18 19  1  0  0  0  0
 18 20  1  0  0  0  0
 13 21  1  0  0  0  0
 21 22  1  0  0  0  0
M  END
> <VM2 Rank>
44

> <Conf_Id>
540

> <Probability>
0.00

> <Sum Probability>
100.00

> <Delta G>
4.800

> <G>
52.187

> <E>
25.238

> <-TS>
26.949

> <U+W>
7.353

> <U>
8.455

> <W>
-1.102

> <W(PB)>
-3.102

> <W(SA)>
2.000

> <Valence>
15.601

> <Coulomb>
-10.573

> <VdW>
3.427

> <VdW6>
-11.360

> <VdW12>
14.787

> <Bond>
0.470

> <Angle>
5.445

> <Pdih>
9.686

> <Idih>
0.000

> <Tether>
0.000

$$$$
VeraChem MOL file


 22 22  0  0  0  0  0  0  0  0999 V2000     
   19.3224   18.8207   21.4075 C   0  0  0  0  0  0  0  0  0  0  0  0
   19.1688   18.6357   20.3358 H   0  0  0  0  0  0  0  0  0  0  0  0
   18.6295   18.1434   21.9254 H   0  0  0  0  0  0  0  0  0  0  0  0
   18.9217   20.2933   21.7098 C   0  0  0  0  0  0  0  0  0  0  0  0
   18.5559   20.7472   20.7788 H   0  0  0  0  0  0  0  0  0  0  0  0
   18.0636   20.3047   22.3950 H   0  0  0  0  0  0  0  0  0  0  0  0
   20.0423   21.1967   22.2817 C   0  0  0  0  0  0  0  0  0  0  0  0
   19.6937   22.2381   22.2602 H   0  0  0  0  0  0  0  0  0  0  0  0
   20.9096   21.1810   21.6103 H   0  0  0  0  0  0  0  0  0  0  0  0
   20.4919   20.8736   23.7341 C   0  0  0  0  0  0  0  0  0  0  0  0
   21.5181   21.2414   23.8622 H   0  0  0  0  0  0  0  0  0  0  0  0
   19.8836   21.4726   24.4241 H   0  0  0  0  0  0  0  0  0  0  0  0
   20.4385   19.3995   24.2135 C   0  0  0  0  0  0  0  0  0  0  0  0
   20.9989   19.3627   25.1588 H   0  0  0  0  0  0  0  0  0  0  0  0
   21.0929   18.3493   23.2805 C   0  0  0  0  0  0  0  0  0  0  0  0
   22.1818   18.4021   23.4068 H   0  0  0  0  0  0  0  0  0  0  0  0
   20.8036   17.3554   23.6467 H   0  0  0  0  0  0  0  0  0  0  0  0
   20.7772   18.4235   21.7622 C   0  0  0  0  0  0  0  0  0  0  0  0
   21.4834   19.0998   21.2654 H   0  0  0  0  0  0  0  0  0  0  0  0
   20.9832   17.4362   21.3271 H   0  0  0  0  0  0  0  0  0  0  0  0
   19.0990   19.0214   24.5177 O   0  0  0  0  0  0  0  0  0  0  0  0
   18.7148   19.7508   25.0439 H   0  0  0  0  0  0  0  0  0  0  0  0
  1  2  1  0  0  0  0
  1  3  1  0  0  0  0
  1  4  1  0  0  0  0
  4  5  1  0  0  0  0
  4  6  1  0  0  0  0
  4  7  1  0  0  0  0
  7  8  1  0  0  0  0
  7  9  1  0  0  0  0
  7 10  1  0  0  0  0
 10 11  1  0  0  0  0
 10 12  1  0  0  0  0
 10 13  1  0  0  0  0
 13 14  1  0  0  0  0
 13 15  1  0  0  0  0
 15 16  1  0  0  0  0
 15 17  1  0  0  0  0
  1 18  1  0  0  0  0
 15 18  1  0  0  0  0
 18 19  1  0  0  0  0
 18 20  1  0  0  0  0
 13 21  1  0  0  0  0
 21 22  1  0  0  0  0
M  END
> <VM2 Rank>
45

> <Conf_Id>
252

> <Probability>
0.00

> <Sum Probability>
100.00

> <Delta G>
6.623

> <G>
54.010

> <E>
27.804

> <-TS>
26.206

> <U+W>
9.919

> <U>
11.966

> <W>
-2.047

> <W(PB)>
-4.035

> <W(SA)>
1.988

> <Valence>
15.235

> <Coulomb>
-6.623

> <VdW>
3.353

> <VdW6>
-10.808

> <VdW12>
14.162

> <Bond>
0.452

> <Angle>
5.180

> <Pdih>
9.603

> <Idih>
0.000

> <Tether>
0.000

$$$$
