VeraChem MOL file


 19 18  0  0  0  0  0  0  0  0999 V2000     
   19.9539   19.2771   25.5145 C   0  0  0  0  0  0  0  0  0  0  0  0
   20.6501   18.4763   26.1063 O   0  5  0  0  0  0  0  0  0  0  0  0
   19.7318   20.4018   25.9168 O   0  0  0  0  0  0  0  0  0  0  0  0
   19.3419   18.8542   24.1837 C   0  0  0  0  0  0  0  0  0  0  0  0
   18.3779   19.3654   24.0741 H   0  0  0  0  0  0  0  0  0  0  0  0
   19.1346   17.7782   24.2304 H   0  0  0  0  0  0  0  0  0  0  0  0
   20.2549   19.1703   22.9735 C   0  0  0  0  0  0  0  0  0  0  0  0
   20.4634   20.2489   22.9483 H   0  0  0  0  0  0  0  0  0  0  0  0
   21.2201   18.6616   23.1046 H   0  0  0  0  0  0  0  0  0  0  0  0
   19.6127   18.7328   21.6394 C   0  0  0  0  0  0  0  0  0  0  0  0
   18.6475   19.2419   21.5119 H   0  0  0  0  0  0  0  0  0  0  0  0
   19.4043   17.6544   21.6683 H   0  0  0  0  0  0  0  0  0  0  0  0
   20.5245   19.0489   20.4356 C   0  0  0  0  0  0  0  0  0  0  0  0
   20.7337   20.1271   20.4021 H   0  0  0  0  0  0  0  0  0  0  0  0
   21.4905   18.5397   20.5585 H   0  0  0  0  0  0  0  0  0  0  0  0
   19.8802   18.6107   19.1052 C   0  0  0  0  0  0  0  0  0  0  0  0
   19.6887   17.5296   19.0988 H   0  0  0  0  0  0  0  0  0  0  0  0
   18.9263   19.1290   18.9413 H   0  0  0  0  0  0  0  0  0  0  0  0
   20.5415   18.8428   18.2603 H   0  0  0  0  0  0  0  0  0  0  0  0
  1  2  1  0  0  0  0
  1  3  2  0  0  0  0
  1  4  1  0  0  0  0
  4  5  1  0  0  0  0
  4  6  1  0  0  0  0
  4  7  1  0  0  0  0
  7  8  1  0  0  0  0
  7  9  1  0  0  0  0
  7 10  1  0  0  0  0
 10 11  1  0  0  0  0
 10 12  1  0  0  0  0
 10 13  1  0  0  0  0
 13 14  1  0  0  0  0
 13 15  1  0  0  0  0
 13 16  1  0  0  0  0
 16 17  1  0  0  0  0
 16 18  1  0  0  0  0
 16 19  1  0  0  0  0
M  END
> <VM2 Rank>
1

> <Conf_Id>
193

> <Probability>
41.07

> <Sum Probability>
41.07

> <Delta G>
0.000

> <G>
-26.152

> <E>
-40.889

> <-TS>
14.737

> <U+W>
-56.091

> <U>
5.975

> <W>
-62.065

> <W(PB)>
-64.218

> <W(SA)>
2.153

> <Valence>
6.673

> <Coulomb>
-1.307

> <VdW>
0.610

> <VdW6>
-5.351

> <VdW12>
5.961

> <Bond>
0.086

> <Angle>
2.253

> <Pdih>
4.333

> <Idih>
0.001

> <Tether>
0.000

$$$$
VeraChem MOL file


 19 18  0  0  0  0  0  0  0  0999 V2000     
   19.8292   19.3146   25.3695 C   0  0  0  0  0  0  0  0  0  0  0  0
   20.1458   18.4559   26.1686 O   0  5  0  0  0  0  0  0  0  0  0  0
   19.7258   20.4915   25.6530 O   0  0  0  0  0  0  0  0  0  0  0  0
   19.5681   18.8951   23.9272 C   0  0  0  0  0  0  0  0  0  0  0  0
   18.7936   19.5565   23.5227 H   0  0  0  0  0  0  0  0  0  0  0  0
   19.1559   17.8790   23.9376 H   0  0  0  0  0  0  0  0  0  0  0  0
   20.8442   18.9455   23.0471 C   0  0  0  0  0  0  0  0  0  0  0  0
   21.2226   19.9763   23.0081 H   0  0  0  0  0  0  0  0  0  0  0  0
   21.6284   18.3453   23.5289 H   0  0  0  0  0  0  0  0  0  0  0  0
   20.6254   18.4139   21.6108 C   0  0  0  0  0  0  0  0  0  0  0  0
   20.2552   17.3804   21.6531 H   0  0  0  0  0  0  0  0  0  0  0  0
   21.5982   18.3749   21.1016 H   0  0  0  0  0  0  0  0  0  0  0  0
   19.6562   19.2806   20.7759 C   0  0  0  0  0  0  0  0  0  0  0  0
   18.6554   19.2713   21.2272 H   0  0  0  0  0  0  0  0  0  0  0  0
   19.9988   20.3246   20.7758 H   0  0  0  0  0  0  0  0  0  0  0  0
   19.5553   18.7750   19.3228 C   0  0  0  0  0  0  0  0  0  0  0  0
   20.5340   18.8067   18.8265 H   0  0  0  0  0  0  0  0  0  0  0  0
   19.1882   17.7407   19.2918 H   0  0  0  0  0  0  0  0  0  0  0  0
   18.8616   19.3984   18.7438 H   0  0  0  0  0  0  0  0  0  0  0  0
  1  2  1  0  0  0  0
  1  3  2  0  0  0  0
  1  4  1  0  0  0  0
  4  5  1  0  0  0  0
  4  6  1  0  0  0  0
  4  7  1  0  0  0  0
  7  8  1  0  0  0  0
  7  9  1  0  0  0  0
  7 10  1  0  0  0  0
 10 11  1  0  0  0  0
 10 12  1  0  0  0  0
 10 13  1  0  0  0  0
 13 14  1  0  0  0  0
 13 15  1  0  0  0  0
 13 16  1  0  0  0  0
 16 17  1  0  0  0  0
 16 18  1  0  0  0  0
 16 19  1  0  0  0  0
M  END
> <VM2 Rank>
2

> <Conf_Id>
98

> <Probability>
11.78

> <Sum Probability>
52.84

> <Delta G>
0.745

> <G>
-25.407

> <E>
-40.253

> <-TS>
14.845

> <U+W>
-55.455

> <U>
6.914

> <W>
-62.369

> <W(PB)>
-64.446

> <W(SA)>
2.077

> <Valence>
7.196

> <Coulomb>
-1.020

> <VdW>
0.738

> <VdW6>
-6.010

> <VdW12>
6.748

> <Bond>
0.126

> <Angle>
2.499

> <Pdih>
4.570

> <Idih>
0.001

> <Tether>
0.000

$$$$
VeraChem MOL file


 19 18  0  0  0  0  0  0  0  0999 V2000     
   20.1747   19.3731   25.3607 C   0  0  0  0  0  0  0  0  0  0  0  0
   20.1982   18.4647   26.1673 O   0  5  0  0  0  0  0  0  0  0  0  0
   19.8984   20.5207   25.6485 O   0  0  0  0  0  0  0  0  0  0  0  0
   20.4875   19.0508   23.9038 C   0  0  0  0  0  0  0  0  0  0  0  0
   21.2110   18.2270   23.8852 H   0  0  0  0  0  0  0  0  0  0  0  0
   20.9803   19.9267   23.4670 H   0  0  0  0  0  0  0  0  0  0  0  0
   19.2240   18.6712   23.0884 C   0  0  0  0  0  0  0  0  0  0  0  0
   18.7057   17.8505   23.6034 H   0  0  0  0  0  0  0  0  0  0  0  0
   18.5261   19.5199   23.0768 H   0  0  0  0  0  0  0  0  0  0  0  0
   19.5341   18.2292   21.6386 C   0  0  0  0  0  0  0  0  0  0  0  0
   18.6043   17.8682   21.1778 H   0  0  0  0  0  0  0  0  0  0  0  0
   20.2252   17.3753   21.6539 H   0  0  0  0  0  0  0  0  0  0  0  0
   20.1218   19.3594   20.7641 C   0  0  0  0  0  0  0  0  0  0  0  0
   19.4553   20.2326   20.7896 H   0  0  0  0  0  0  0  0  0  0  0  0
   21.0909   19.6836   21.1652 H   0  0  0  0  0  0  0  0  0  0  0  0
   20.3114   18.9029   19.3036 C   0  0  0  0  0  0  0  0  0  0  0  0
   20.9962   18.0467   19.2458 H   0  0  0  0  0  0  0  0  0  0  0  0
   19.3534   18.6068   18.8565 H   0  0  0  0  0  0  0  0  0  0  0  0
   20.7319   19.7149   18.6962 H   0  0  0  0  0  0  0  0  0  0  0  0
  1  2  1  0  0  0  0
  1  3  2  0  0  0  0
  1  4  1  0  0  0  0
  4  5  1  0  0  0  0
  4  6  1  0  0  0  0
  4  7  1  0  0  0  0
  7  8  1  0  0  0  0
  7  9  1  0  0  0  0
  7 10  1  0  0  0  0
 10 11  1  0  0  0  0
 10 12  1  0  0  0  0
 10 13  1  0  0  0  0
 13 14  1  0  0  0  0
 13 15  1  0  0  0  0
 13 16  1  0  0  0  0
 16 17  1  0  0  0  0
 16 18  1  0  0  0  0
 16 19  1  0  0  0  0
M  END
> <VM2 Rank>
3

> <Conf_Id>
33

> <Probability>
11.06

> <Sum Probability>
63.90

> <Delta G>
0.782

> <G>
-25.370

> <E>
-40.215

> <-TS>
14.846

> <U+W>
-55.418

> <U>
6.914

> <W>
-62.332

> <W(PB)>
-64.421

> <W(SA)>
2.090

> <Valence>
7.196

> <Coulomb>
-1.020

> <VdW>
0.738

> <VdW6>
-6.010

> <VdW12>
6.748

> <Bond>
0.126

> <Angle>
2.499

> <Pdih>
4.570

> <Idih>
0.001

> <Tether>
0.000

$$$$
VeraChem MOL file


 19 18  0  0  0  0  0  0  0  0999 V2000     
   20.0105   19.3758   25.3743 C   0  0  0  0  0  0  0  0  0  0  0  0
   20.8022   18.7068   26.0083 O   0  5  0  0  0  0  0  0  0  0  0  0
   19.7500   20.5340   25.6329 O   0  0  0  0  0  0  0  0  0  0  0  0
   19.3190   18.7316   24.1779 C   0  0  0  0  0  0  0  0  0  0  0  0
   18.3203   19.1745   24.0821 H   0  0  0  0  0  0  0  0  0  0  0  0
   19.1814   17.6659   24.3972 H   0  0  0  0  0  0  0  0  0  0  0  0
   20.1099   18.9083   22.8582 C   0  0  0  0  0  0  0  0  0  0  0  0
   20.2512   19.9807   22.6696 H   0  0  0  0  0  0  0  0  0  0  0  0
   21.1101   18.4685   22.9730 H   0  0  0  0  0  0  0  0  0  0  0  0
   19.3844   18.2493   21.6623 C   0  0  0  0  0  0  0  0  0  0  0  0
   18.4038   18.7228   21.5171 H   0  0  0  0  0  0  0  0  0  0  0  0
   19.1888   17.1946   21.9000 H   0  0  0  0  0  0  0  0  0  0  0  0
   20.1900   18.3141   20.3442 C   0  0  0  0  0  0  0  0  0  0  0  0
   21.1696   17.8363   20.4839 H   0  0  0  0  0  0  0  0  0  0  0  0
   19.6638   17.7254   19.5802 H   0  0  0  0  0  0  0  0  0  0  0  0
   20.3840   19.7522   19.8169 C   0  0  0  0  0  0  0  0  0  0  0  0
   19.4182   20.2603   19.6971 H   0  0  0  0  0  0  0  0  0  0  0  0
   21.0051   20.3482   20.4972 H   0  0  0  0  0  0  0  0  0  0  0  0
   20.8821   19.7383   18.8389 H   0  0  0  0  0  0  0  0  0  0  0  0
  1  2  1  0  0  0  0
  1  3  2  0  0  0  0
  1  4  1  0  0  0  0
  4  5  1  0  0  0  0
  4  6  1  0  0  0  0
  4  7  1  0  0  0  0
  7  8  1  0  0  0  0
  7  9  1  0  0  0  0
  7 10  1  0  0  0  0
 10 11  1  0  0  0  0
 10 12  1  0  0  0  0
 10 13  1  0  0  0  0
 13 14  1  0  0  0  0
 13 15  1  0  0  0  0
 13 16  1  0  0  0  0
 16 17  1  0  0  0  0
 16 18  1  0  0  0  0
 16 19  1  0  0  0  0
M  END
> <VM2 Rank>
4

> <Conf_Id>
124

> <Probability>
9.39

> <Sum Probability>
73.29

> <Delta G>
0.880

> <G>
-25.272

> <E>
-40.125

> <-TS>
14.853

> <U+W>
-55.327

> <U>
7.244

> <W>
-62.571

> <W(PB)>
-64.665

> <W(SA)>
2.094

> <Valence>
7.174

> <Coulomb>
-0.669

> <VdW>
0.739

> <VdW6>
-5.969

> <VdW12>
6.708

> <Bond>
0.116

> <Angle>
2.481

> <Pdih>
4.576

> <Idih>
0.000

> <Tether>
0.000

$$$$
VeraChem MOL file


 19 18  0  0  0  0  0  0  0  0999 V2000     
   19.8728   19.2876   25.3817 C   0  0  0  0  0  0  0  0  0  0  0  0
   20.1974   18.3193   26.0398 O   0  5  0  0  0  0  0  0  0  0  0  0
   18.9511   20.0225   25.6760 O   0  0  0  0  0  0  0  0  0  0  0  0
   20.6536   19.5864   24.1067 C   0  0  0  0  0  0  0  0  0  0  0  0
   21.6933   19.2747   24.2631 H   0  0  0  0  0  0  0  0  0  0  0  0
   20.6598   20.6728   23.9572 H   0  0  0  0  0  0  0  0  0  0  0  0
   20.0651   18.8797   22.8606 C   0  0  0  0  0  0  0  0  0  0  0  0
   20.0570   17.7940   23.0293 H   0  0  0  0  0  0  0  0  0  0  0  0
   19.0199   19.1922   22.7354 H   0  0  0  0  0  0  0  0  0  0  0  0
   20.8734   19.2031   21.5828 C   0  0  0  0  0  0  0  0  0  0  0  0
   21.9287   18.9498   21.7536 H   0  0  0  0  0  0  0  0  0  0  0  0
   20.8402   20.2836   21.3869 H   0  0  0  0  0  0  0  0  0  0  0  0
   20.3804   18.4360   20.3341 C   0  0  0  0  0  0  0  0  0  0  0  0
   21.0747   18.6294   19.5048 H   0  0  0  0  0  0  0  0  0  0  0  0
   20.4176   17.3544   20.5241 H   0  0  0  0  0  0  0  0  0  0  0  0
   18.9562   18.8374   19.8934 C   0  0  0  0  0  0  0  0  0  0  0  0
   18.2095   18.5569   20.6468 H   0  0  0  0  0  0  0  0  0  0  0  0
   18.8872   19.9201   19.7257 H   0  0  0  0  0  0  0  0  0  0  0  0
   18.6880   18.3326   18.9563 H   0  0  0  0  0  0  0  0  0  0  0  0
  1  2  1  0  0  0  0
  1  3  2  0  0  0  0
  1  4  1  0  0  0  0
  4  5  1  0  0  0  0
  4  6  1  0  0  0  0
  4  7  1  0  0  0  0
  7  8  1  0  0  0  0
  7  9  1  0  0  0  0
  7 10  1  0  0  0  0
 10 11  1  0  0  0  0
 10 12  1  0  0  0  0
 10 13  1  0  0  0  0
 13 14  1  0  0  0  0
 13 15  1  0  0  0  0
 13 16  1  0  0  0  0
 16 17  1  0  0  0  0
 16 18  1  0  0  0  0
 16 19  1  0  0  0  0
M  END
> <VM2 Rank>
5

> <Conf_Id>
296

> <Probability>
9.30

> <Sum Probability>
82.59

> <Delta G>
0.886

> <G>
-25.266

> <E>
-40.119

> <-TS>
14.853

> <U+W>
-55.321

> <U>
7.244

> <W>
-62.565

> <W(PB)>
-64.668

> <W(SA)>
2.103

> <Valence>
7.173

> <Coulomb>
-0.669

> <VdW>
0.739

> <VdW6>
-5.969

> <VdW12>
6.708

> <Bond>
0.116

> <Angle>
2.481

> <Pdih>
4.576

> <Idih>
0.000

> <Tether>
0.000

$$$$
VeraChem MOL file


 19 18  0  0  0  0  0  0  0  0999 V2000     
   20.1397   19.2125   25.1803 C   0  0  0  0  0  0  0  0  0  0  0  0
   20.9105   18.2974   25.3929 O   0  5  0  0  0  0  0  0  0  0  0  0
   20.3192   20.3476   25.5751 O   0  0  0  0  0  0  0  0  0  0  0  0
   18.8655   18.9176   24.3937 C   0  0  0  0  0  0  0  0  0  0  0  0
   18.0325   19.3860   24.9312 H   0  0  0  0  0  0  0  0  0  0  0  0
   18.6857   17.8358   24.4105 H   0  0  0  0  0  0  0  0  0  0  0  0
   18.8927   19.4329   22.9312 C   0  0  0  0  0  0  0  0  0  0  0  0
   17.8955   19.3035   22.4892 H   0  0  0  0  0  0  0  0  0  0  0  0
   19.1020   20.5117   22.9293 H   0  0  0  0  0  0  0  0  0  0  0  0
   19.9351   18.6960   22.0608 C   0  0  0  0  0  0  0  0  0  0  0  0
   19.7294   17.6169   22.0763 H   0  0  0  0  0  0  0  0  0  0  0  0
   20.9383   18.8348   22.4872 H   0  0  0  0  0  0  0  0  0  0  0  0
   19.9231   19.2026   20.6035 C   0  0  0  0  0  0  0  0  0  0  0  0
   18.9231   19.0623   20.1702 H   0  0  0  0  0  0  0  0  0  0  0  0
   20.1310   20.2815   20.5849 H   0  0  0  0  0  0  0  0  0  0  0  0
   20.9641   18.4654   19.7376 C   0  0  0  0  0  0  0  0  0  0  0  0
   21.9783   18.6148   20.1307 H   0  0  0  0  0  0  0  0  0  0  0  0
   20.7614   17.3867   19.7131 H   0  0  0  0  0  0  0  0  0  0  0  0
   20.9424   18.8381   18.7052 H   0  0  0  0  0  0  0  0  0  0  0  0
  1  2  1  0  0  0  0
  1  3  2  0  0  0  0
  1  4  1  0  0  0  0
  4  5  1  0  0  0  0
  4  6  1  0  0  0  0
  4  7  1  0  0  0  0
  7  8  1  0  0  0  0
  7  9  1  0  0  0  0
  7 10  1  0  0  0  0
 10 11  1  0  0  0  0
 10 12  1  0  0  0  0
 10 13  1  0  0  0  0
 13 14  1  0  0  0  0
 13 15  1  0  0  0  0
 13 16  1  0  0  0  0
 16 17  1  0  0  0  0
 16 18  1  0  0  0  0
 16 19  1  0  0  0  0
M  END
> <VM2 Rank>
6

> <Conf_Id>
278

> <Probability>
3.73

> <Sum Probability>
86.32

> <Delta G>
1.430

> <G>
-24.722

> <E>
-39.769

> <-TS>
15.047

> <U+W>
-54.971

> <U>
8.266

> <W>
-63.238

> <W(PB)>
-65.341

> <W(SA)>
2.103

> <Valence>
6.935

> <Coulomb>
0.874

> <VdW>
0.457

> <VdW6>
-6.205

> <VdW12>
6.662

> <Bond>
0.107

> <Angle>
2.420

> <Pdih>
4.407

> <Idih>
0.001

> <Tether>
0.000

$$$$
VeraChem MOL file


 19 18  0  0  0  0  0  0  0  0999 V2000     
   20.0469   19.4069   25.1612 C   0  0  0  0  0  0  0  0  0  0  0  0
   21.0055   18.9084   25.7172 O   0  5  0  0  0  0  0  0  0  0  0  0
   19.8126   20.5992   25.1660 O   0  0  0  0  0  0  0  0  0  0  0  0
   19.0738   18.4809   24.4366 C   0  0  0  0  0  0  0  0  0  0  0  0
   18.1247   19.0119   24.2946 H   0  0  0  0  0  0  0  0  0  0  0  0
   18.8676   17.6354   25.1035 H   0  0  0  0  0  0  0  0  0  0  0  0
   19.5996   17.9514   23.0771 C   0  0  0  0  0  0  0  0  0  0  0  0
   20.5639   17.4476   23.2312 H   0  0  0  0  0  0  0  0  0  0  0  0
   18.9030   17.1918   22.6972 H   0  0  0  0  0  0  0  0  0  0  0  0
   19.7563   19.0710   22.0238 C   0  0  0  0  0  0  0  0  0  0  0  0
   20.4651   19.8268   22.3895 H   0  0  0  0  0  0  0  0  0  0  0  0
   18.7929   19.5800   21.8829 H   0  0  0  0  0  0  0  0  0  0  0  0
   20.2500   18.5174   20.6709 C   0  0  0  0  0  0  0  0  0  0  0  0
   21.2149   18.0098   20.8085 H   0  0  0  0  0  0  0  0  0  0  0  0
   19.5427   17.7636   20.2982 H   0  0  0  0  0  0  0  0  0  0  0  0
   20.4052   19.6367   19.6221 C   0  0  0  0  0  0  0  0  0  0  0  0
   20.7573   19.2259   18.6670 H   0  0  0  0  0  0  0  0  0  0  0  0
   19.4470   20.1413   19.4417 H   0  0  0  0  0  0  0  0  0  0  0  0
   21.1316   20.3894   19.9558 H   0  0  0  0  0  0  0  0  0  0  0  0
  1  2  1  0  0  0  0
  1  3  2  0  0  0  0
  1  4  1  0  0  0  0
  4  5  1  0  0  0  0
  4  6  1  0  0  0  0
  4  7  1  0  0  0  0
  7  8  1  0  0  0  0
  7  9  1  0  0  0  0
  7 10  1  0  0  0  0
 10 11  1  0  0  0  0
 10 12  1  0  0  0  0
 10 13  1  0  0  0  0
 13 14  1  0  0  0  0
 13 15  1  0  0  0  0
 13 16  1  0  0  0  0
 16 17  1  0  0  0  0
 16 18  1  0  0  0  0
 16 19  1  0  0  0  0
M  END
> <VM2 Rank>
7

> <Conf_Id>
309

> <Probability>
3.72

> <Sum Probability>
90.04

> <Delta G>
1.431

> <G>
-24.721

> <E>
-39.768

> <-TS>
15.047

> <U+W>
-54.970

> <U>
8.266

> <W>
-63.236

> <W(PB)>
-65.331

> <W(SA)>
2.095

> <Valence>
6.935

> <Coulomb>
0.874

> <VdW>
0.457

> <VdW6>
-6.205

> <VdW12>
6.662

> <Bond>
0.107

> <Angle>
2.420

> <Pdih>
4.407

> <Idih>
0.001

> <Tether>
0.000

$$$$
VeraChem MOL file


 19 18  0  0  0  0  0  0  0  0999 V2000     
   20.0073   19.2236   25.5349 C   0  0  0  0  0  0  0  0  0  0  0  0
   19.9566   18.5581   26.5499 O   0  5  0  0  0  0  0  0  0  0  0  0
   20.1008   20.4358   25.5405 O   0  0  0  0  0  0  0  0  0  0  0  0
   19.9481   18.4725   24.2038 C   0  0  0  0  0  0  0  0  0  0  0  0
   19.0189   17.8906   24.1975 H   0  0  0  0  0  0  0  0  0  0  0  0
   20.7765   17.7544   24.1962 H   0  0  0  0  0  0  0  0  0  0  0  0
   20.0163   19.3645   22.9356 C   0  0  0  0  0  0  0  0  0  0  0  0
   19.1872   20.0854   22.9521 H   0  0  0  0  0  0  0  0  0  0  0  0
   20.9465   19.9491   22.9509 H   0  0  0  0  0  0  0  0  0  0  0  0
   19.9504   18.5267   21.6402 C   0  0  0  0  0  0  0  0  0  0  0  0
   19.0198   17.9429   21.6271 H   0  0  0  0  0  0  0  0  0  0  0  0
   20.7801   17.8065   21.6258 H   0  0  0  0  0  0  0  0  0  0  0  0
   20.0183   19.4152   20.3808 C   0  0  0  0  0  0  0  0  0  0  0  0
   19.1888   20.1359   20.3905 H   0  0  0  0  0  0  0  0  0  0  0  0
   20.9490   19.9995   20.3891 H   0  0  0  0  0  0  0  0  0  0  0  0
   19.9522   18.5756   19.0894 C   0  0  0  0  0  0  0  0  0  0  0  0
   19.0159   18.0044   19.0398 H   0  0  0  0  0  0  0  0  0  0  0  0
   20.0017   19.2229   18.2042 H   0  0  0  0  0  0  0  0  0  0  0  0
   20.7893   17.8669   19.0384 H   0  0  0  0  0  0  0  0  0  0  0  0
  1  2  1  0  0  0  0
  1  3  2  0  0  0  0
  1  4  1  0  0  0  0
  4  5  1  0  0  0  0
  4  6  1  0  0  0  0
  4  7  1  0  0  0  0
  7  8  1  0  0  0  0
  7  9  1  0  0  0  0
  7 10  1  0  0  0  0
 10 11  1  0  0  0  0
 10 12  1  0  0  0  0
 10 13  1  0  0  0  0
 13 14  1  0  0  0  0
 13 15  1  0  0  0  0
 13 16  1  0  0  0  0
 16 17  1  0  0  0  0
 16 18  1  0  0  0  0
 16 19  1  0  0  0  0
M  END
> <VM2 Rank>
8

> <Conf_Id>
0

> <Probability>
2.34

> <Sum Probability>
92.38

> <Delta G>
1.709

> <G>
-24.443

> <E>
-39.689

> <-TS>
15.246

> <U+W>
-54.891

> <U>
6.966

> <W>
-61.857

> <W(PB)>
-63.965

> <W(SA)>
2.108

> <Valence>
7.175

> <Coulomb>
-1.360

> <VdW>
1.151

> <VdW6>
-5.641

> <VdW12>
6.792

> <Bond>
0.119

> <Angle>
2.715

> <Pdih>
4.340

> <Idih>
0.000

> <Tether>
0.000

$$$$
VeraChem MOL file


 19 18  0  0  0  0  0  0  0  0999 V2000     
   19.8396   19.3989   25.1884 C   0  0  0  0  0  0  0  0  0  0  0  0
   20.2288   18.7002   26.1031 O   0  5  0  0  0  0  0  0  0  0  0  0
   19.6637   20.5972   25.2858 O   0  0  0  0  0  0  0  0  0  0  0  0
   19.5756   18.7386   23.8399 C   0  0  0  0  0  0  0  0  0  0  0  0
   18.7541   19.2808   23.3579 H   0  0  0  0  0  0  0  0  0  0  0  0
   19.2276   17.7151   24.0235 H   0  0  0  0  0  0  0  0  0  0  0  0
   20.8268   18.7219   22.9240 C   0  0  0  0  0  0  0  0  0  0  0  0
   21.1434   19.7526   22.7159 H   0  0  0  0  0  0  0  0  0  0  0  0
   21.6572   18.2538   23.4704 H   0  0  0  0  0  0  0  0  0  0  0  0
   20.6130   17.9507   21.5973 C   0  0  0  0  0  0  0  0  0  0  0  0
   20.3979   16.8985   21.8281 H   0  0  0  0  0  0  0  0  0  0  0  0
   21.5559   17.9508   21.0336 H   0  0  0  0  0  0  0  0  0  0  0  0
   19.4867   18.5013   20.6882 C   0  0  0  0  0  0  0  0  0  0  0  0
   19.4205   17.8691   19.7921 H   0  0  0  0  0  0  0  0  0  0  0  0
   18.5154   18.4143   21.1928 H   0  0  0  0  0  0  0  0  0  0  0  0
   19.7158   19.9632   20.2483 C   0  0  0  0  0  0  0  0  0  0  0  0
   19.6743   20.6484   21.1045 H   0  0  0  0  0  0  0  0  0  0  0  0
   20.6926   20.0784   19.7609 H   0  0  0  0  0  0  0  0  0  0  0  0
   18.9423   20.2754   19.5348 H   0  0  0  0  0  0  0  0  0  0  0  0
  1  2  1  0  0  0  0
  1  3  2  0  0  0  0
  1  4  1  0  0  0  0
  4  5  1  0  0  0  0
  4  6  1  0  0  0  0
  4  7  1  0  0  0  0
  7  8  1  0  0  0  0
  7  9  1  0  0  0  0
  7 10  1  0  0  0  0
 10 11  1  0  0  0  0
 10 12  1  0  0  0  0
 10 13  1  0  0  0  0
 13 14  1  0  0  0  0
 13 15  1  0  0  0  0
 13 16  1  0  0  0  0
 16 17  1  0  0  0  0
 16 18  1  0  0  0  0
 16 19  1  0  0  0  0
M  END
> <VM2 Rank>
9

> <Conf_Id>
181

> <Probability>
1.64

> <Sum Probability>
94.03

> <Delta G>
1.919

> <G>
-24.233

> <E>
-39.381

> <-TS>
15.148

> <U+W>
-54.583

> <U>
8.219

> <W>
-62.803

> <W(PB)>
-64.860

> <W(SA)>
2.057

> <Valence>
7.609

> <Coulomb>
-0.088

> <VdW>
0.699

> <VdW6>
-6.924

> <VdW12>
7.623

> <Bond>
0.163

> <Angle>
2.870

> <Pdih>
4.576

> <Idih>
0.001

> <Tether>
0.000

$$$$
VeraChem MOL file


 19 18  0  0  0  0  0  0  0  0999 V2000     
   20.0745   19.4633   25.1810 C   0  0  0  0  0  0  0  0  0  0  0  0
   20.1504   18.6787   26.1056 O   0  5  0  0  0  0  0  0  0  0  0  0
   19.6201   20.5852   25.2872 O   0  0  0  0  0  0  0  0  0  0  0  0
   20.5581   19.0080   23.8087 C   0  0  0  0  0  0  0  0  0  0  0  0
   21.3893   18.3079   23.9550 H   0  0  0  0  0  0  0  0  0  0  0  0
   20.9585   19.8853   23.2880 H   0  0  0  0  0  0  0  0  0  0  0  0
   19.4386   18.3412   22.9681 C   0  0  0  0  0  0  0  0  0  0  0  0
   18.9967   17.5241   23.5548 H   0  0  0  0  0  0  0  0  0  0  0  0
   18.6294   19.0631   22.7957 H   0  0  0  0  0  0  0  0  0  0  0  0
   19.9370   17.7654   21.6187 C   0  0  0  0  0  0  0  0  0  0  0  0
   19.0944   17.2757   21.1117 H   0  0  0  0  0  0  0  0  0  0  0  0
   20.6715   16.9735   21.8195 H   0  0  0  0  0  0  0  0  0  0  0  0
   20.5695   18.7983   20.6539 C   0  0  0  0  0  0  0  0  0  0  0  0
   21.4772   19.2268   21.0989 H   0  0  0  0  0  0  0  0  0  0  0  0
   20.8958   18.2737   19.7454 H   0  0  0  0  0  0  0  0  0  0  0  0
   19.6017   19.9319   20.2518 C   0  0  0  0  0  0  0  0  0  0  0  0
   19.3385   20.5563   21.1150 H   0  0  0  0  0  0  0  0  0  0  0  0
   20.0644   20.5831   19.4990 H   0  0  0  0  0  0  0  0  0  0  0  0
   18.6759   19.5251   19.8248 H   0  0  0  0  0  0  0  0  0  0  0  0
  1  2  1  0  0  0  0
  1  3  2  0  0  0  0
  1  4  1  0  0  0  0
  4  5  1  0  0  0  0
  4  6  1  0  0  0  0
  4  7  1  0  0  0  0
  7  8  1  0  0  0  0
  7  9  1  0  0  0  0
  7 10  1  0  0  0  0
 10 11  1  0  0  0  0
 10 12  1  0  0  0  0
 10 13  1  0  0  0  0
 13 14  1  0  0  0  0
 13 15  1  0  0  0  0
 13 16  1  0  0  0  0
 16 17  1  0  0  0  0
 16 18  1  0  0  0  0
 16 19  1  0  0  0  0
M  END
> <VM2 Rank>
10

> <Conf_Id>
55

> <Probability>
1.61

> <Sum Probability>
95.64

> <Delta G>
1.930

> <G>
-24.222

> <E>
-39.370

> <-TS>
15.148

> <U+W>
-54.572

> <U>
8.219

> <W>
-62.792

> <W(PB)>
-64.830

> <W(SA)>
2.038

> <Valence>
7.609

> <Coulomb>
-0.088

> <VdW>
0.699

> <VdW6>
-6.924

> <VdW12>
7.623

> <Bond>
0.163

> <Angle>
2.870

> <Pdih>
4.576

> <Idih>
0.000

> <Tether>
0.000

$$$$
VeraChem MOL file


 19 18  0  0  0  0  0  0  0  0999 V2000     
   20.0017   19.2478   25.2108 C   0  0  0  0  0  0  0  0  0  0  0  0
   20.7795   18.4084   25.6194 O   0  5  0  0  0  0  0  0  0  0  0  0
   20.0126   20.4073   25.5746 O   0  0  0  0  0  0  0  0  0  0  0  0
   18.9384   18.8199   24.2030 C   0  0  0  0  0  0  0  0  0  0  0  0
   17.9821   19.2377   24.5391 H   0  0  0  0  0  0  0  0  0  0  0  0
   18.8384   17.7284   24.2406 H   0  0  0  0  0  0  0  0  0  0  0  0
   19.2217   19.2813   22.7495 C   0  0  0  0  0  0  0  0  0  0  0  0
   18.3376   19.0639   22.1367 H   0  0  0  0  0  0  0  0  0  0  0  0
   19.3587   20.3714   22.7339 H   0  0  0  0  0  0  0  0  0  0  0  0
   20.4623   18.5877   22.1374 C   0  0  0  0  0  0  0  0  0  0  0  0
   20.3071   17.5004   22.1186 H   0  0  0  0  0  0  0  0  0  0  0  0
   21.3315   18.7652   22.7854 H   0  0  0  0  0  0  0  0  0  0  0  0
   20.8052   19.0865   20.7146 C   0  0  0  0  0  0  0  0  0  0  0  0
   20.9632   20.1738   20.7306 H   0  0  0  0  0  0  0  0  0  0  0  0
   21.7598   18.6390   20.4053 H   0  0  0  0  0  0  0  0  0  0  0  0
   19.7286   18.7330   19.6658 C   0  0  0  0  0  0  0  0  0  0  0  0
   18.7847   19.2541   19.8685 H   0  0  0  0  0  0  0  0  0  0  0  0
   20.0606   19.0266   18.6615 H   0  0  0  0  0  0  0  0  0  0  0  0
   19.5311   17.6532   19.6541 H   0  0  0  0  0  0  0  0  0  0  0  0
  1  2  1  0  0  0  0
  1  3  2  0  0  0  0
  1  4  1  0  0  0  0
  4  5  1  0  0  0  0
  4  6  1  0  0  0  0
  4  7  1  0  0  0  0
  7  8  1  0  0  0  0
  7  9  1  0  0  0  0
  7 10  1  0  0  0  0
 10 11  1  0  0  0  0
 10 12  1  0  0  0  0
 10 13  1  0  0  0  0
 13 14  1  0  0  0  0
 13 15  1  0  0  0  0
 13 16  1  0  0  0  0
 16 17  1  0  0  0  0
 16 18  1  0  0  0  0
 16 19  1  0  0  0  0
M  END
> <VM2 Rank>
11

> <Conf_Id>
315

> <Probability>
0.74

> <Sum Probability>
96.38

> <Delta G>
2.392

> <G>
-23.760

> <E>
-38.926

> <-TS>
15.166

> <U+W>
-54.128

> <U>
8.869

> <W>
-62.997

> <W(PB)>
-65.086

> <W(SA)>
2.089

> <Valence>
7.469

> <Coulomb>
0.761

> <VdW>
0.639

> <VdW6>
-6.781

> <VdW12>
7.420

> <Bond>
0.141

> <Angle>
2.667

> <Pdih>
4.660

> <Idih>
0.001

> <Tether>
0.000

$$$$
VeraChem MOL file


 19 18  0  0  0  0  0  0  0  0999 V2000     
   20.0790   19.3488   25.1049 C   0  0  0  0  0  0  0  0  0  0  0  0
   20.9618   18.6236   25.5190 O   0  5  0  0  0  0  0  0  0  0  0  0
   20.0482   20.5479   25.2994 O   0  0  0  0  0  0  0  0  0  0  0  0
   18.9318   18.7174   24.3209 C   0  0  0  0  0  0  0  0  0  0  0  0
   17.9974   19.1411   24.7074 H   0  0  0  0  0  0  0  0  0  0  0  0
   18.9074   17.6431   24.5401 H   0  0  0  0  0  0  0  0  0  0  0  0
   19.0113   18.9504   22.7897 C   0  0  0  0  0  0  0  0  0  0  0  0
   18.0877   18.5807   22.3243 H   0  0  0  0  0  0  0  0  0  0  0  0
   19.0550   20.0303   22.5952 H   0  0  0  0  0  0  0  0  0  0  0  0
   20.2267   18.2423   22.1451 C   0  0  0  0  0  0  0  0  0  0  0  0
   20.2099   17.1795   22.4226 H   0  0  0  0  0  0  0  0  0  0  0  0
   21.1590   18.6547   22.5551 H   0  0  0  0  0  0  0  0  0  0  0  0
   20.2517   18.3481   20.6028 C   0  0  0  0  0  0  0  0  0  0  0  0
   21.0744   17.7285   20.2202 H   0  0  0  0  0  0  0  0  0  0  0  0
   19.3262   17.9268   20.1865 H   0  0  0  0  0  0  0  0  0  0  0  0
   20.4395   19.7934   20.0933 C   0  0  0  0  0  0  0  0  0  0  0  0
   20.5393   19.8053   19.0003 H   0  0  0  0  0  0  0  0  0  0  0  0
   19.5817   20.4252   20.3554 H   0  0  0  0  0  0  0  0  0  0  0  0
   21.3440   20.2459   20.5205 H   0  0  0  0  0  0  0  0  0  0  0  0
  1  2  1  0  0  0  0
  1  3  2  0  0  0  0
  1  4  1  0  0  0  0
  4  5  1  0  0  0  0
  4  6  1  0  0  0  0
  4  7  1  0  0  0  0
  7  8  1  0  0  0  0
  7  9  1  0  0  0  0
  7 10  1  0  0  0  0
 10 11  1  0  0  0  0
 10 12  1  0  0  0  0
 10 13  1  0  0  0  0
 13 14  1  0  0  0  0
 13 15  1  0  0  0  0
 13 16  1  0  0  0  0
 16 17  1  0  0  0  0
 16 18  1  0  0  0  0
 16 19  1  0  0  0  0
M  END
> <VM2 Rank>
12

> <Conf_Id>
287

> <Probability>
0.74

> <Sum Probability>
97.12

> <Delta G>
2.393

> <G>
-23.759

> <E>
-38.923

> <-TS>
15.165

> <U+W>
-54.125

> <U>
9.285

> <W>
-63.410

> <W(PB)>
-65.483

> <W(SA)>
2.073

> <Valence>
7.426

> <Coulomb>
1.298

> <VdW>
0.561

> <VdW6>
-6.840

> <VdW12>
7.401

> <Bond>
0.137

> <Angle>
2.635

> <Pdih>
4.653

> <Idih>
0.001

> <Tether>
0.000

$$$$
VeraChem MOL file


 19 18  0  0  0  0  0  0  0  0999 V2000     
   20.1194   19.2641   25.1133 C   0  0  0  0  0  0  0  0  0  0  0  0
   21.0097   18.5318   25.4978 O   0  5  0  0  0  0  0  0  0  0  0  0
   20.0869   20.4578   25.3386 O   0  0  0  0  0  0  0  0  0  0  0  0
   18.9668   18.6441   24.3280 C   0  0  0  0  0  0  0  0  0  0  0  0
   18.1064   19.3227   24.3746 H   0  0  0  0  0  0  0  0  0  0  0  0
   18.6732   17.7239   24.8469 H   0  0  0  0  0  0  0  0  0  0  0  0
   19.3130   18.3180   22.8519 C   0  0  0  0  0  0  0  0  0  0  0  0
   20.1879   17.6548   22.8292 H   0  0  0  0  0  0  0  0  0  0  0  0
   18.4792   17.7599   22.4050 H   0  0  0  0  0  0  0  0  0  0  0  0
   19.5847   19.5890   22.0125 C   0  0  0  0  0  0  0  0  0  0  0  0
   20.4611   20.1186   22.4110 H   0  0  0  0  0  0  0  0  0  0  0  0
   18.7338   20.2758   22.1178 H   0  0  0  0  0  0  0  0  0  0  0  0
   19.7990   19.2975   20.5093 C   0  0  0  0  0  0  0  0  0  0  0  0
   18.9204   18.7779   20.1027 H   0  0  0  0  0  0  0  0  0  0  0  0
   19.8708   20.2531   19.9717 H   0  0  0  0  0  0  0  0  0  0  0  0
   21.0705   18.4696   20.2236 C   0  0  0  0  0  0  0  0  0  0  0  0
   21.2257   18.3653   19.1419 H   0  0  0  0  0  0  0  0  0  0  0  0
   21.9590   18.9557   20.6473 H   0  0  0  0  0  0  0  0  0  0  0  0
   20.9950   17.4604   20.6472 H   0  0  0  0  0  0  0  0  0  0  0  0
  1  2  1  0  0  0  0
  1  3  2  0  0  0  0
  1  4  1  0  0  0  0
  4  5  1  0  0  0  0
  4  6  1  0  0  0  0
  4  7  1  0  0  0  0
  7  8  1  0  0  0  0
  7  9  1  0  0  0  0
  7 10  1  0  0  0  0
 10 11  1  0  0  0  0
 10 12  1  0  0  0  0
 10 13  1  0  0  0  0
 13 14  1  0  0  0  0
 13 15  1  0  0  0  0
 13 16  1  0  0  0  0
 16 17  1  0  0  0  0
 16 18  1  0  0  0  0
 16 19  1  0  0  0  0
M  END
> <VM2 Rank>
13

> <Conf_Id>
116

> <Probability>
0.72

> <Sum Probability>
97.85

> <Delta G>
2.407

> <G>
-23.745

> <E>
-38.909

> <-TS>
15.164

> <U+W>
-54.111

> <U>
9.285

> <W>
-63.396

> <W(PB)>
-65.463

> <W(SA)>
2.066

> <Valence>
7.426

> <Coulomb>
1.298

> <VdW>
0.561

> <VdW6>
-6.840

> <VdW12>
7.401

> <Bond>
0.137

> <Angle>
2.635

> <Pdih>
4.653

> <Idih>
0.001

> <Tether>
0.000

$$$$
VeraChem MOL file


 19 18  0  0  0  0  0  0  0  0999 V2000     
   19.9583   19.2352   25.2117 C   0  0  0  0  0  0  0  0  0  0  0  0
   19.7681   18.1132   25.6378 O   0  5  0  0  0  0  0  0  0  0  0  0
   19.3374   20.2102   25.5864 O   0  0  0  0  0  0  0  0  0  0  0  0
   21.0506   19.4364   24.1647 C   0  0  0  0  0  0  0  0  0  0  0  0
   21.7230   18.5702   24.1884 H   0  0  0  0  0  0  0  0  0  0  0  0
   21.6428   20.3061   24.4728 H   0  0  0  0  0  0  0  0  0  0  0  0
   20.5153   19.6588   22.7261 C   0  0  0  0  0  0  0  0  0  0  0  0
   19.8132   20.5040   22.7257 H   0  0  0  0  0  0  0  0  0  0  0  0
   21.3565   19.9449   22.0820 H   0  0  0  0  0  0  0  0  0  0  0  0
   19.8226   18.4010   22.1490 C   0  0  0  0  0  0  0  0  0  0  0  0
   19.0166   18.0895   22.8275 H   0  0  0  0  0  0  0  0  0  0  0  0
   20.5375   17.5676   22.1144 H   0  0  0  0  0  0  0  0  0  0  0  0
   19.2178   18.6233   20.7434 C   0  0  0  0  0  0  0  0  0  0  0  0
   18.6440   17.7296   20.4619 H   0  0  0  0  0  0  0  0  0  0  0  0
   18.5007   19.4551   20.7754 H   0  0  0  0  0  0  0  0  0  0  0  0
   20.2798   18.8940   19.6558 C   0  0  0  0  0  0  0  0  0  0  0  0
   20.8015   19.8429   19.8319 H   0  0  0  0  0  0  0  0  0  0  0  0
   21.0266   18.0898   19.6270 H   0  0  0  0  0  0  0  0  0  0  0  0
   19.8087   18.9531   18.6661 H   0  0  0  0  0  0  0  0  0  0  0  0
  1  2  1  0  0  0  0
  1  3  2  0  0  0  0
  1  4  1  0  0  0  0
  4  5  1  0  0  0  0
  4  6  1  0  0  0  0
  4  7  1  0  0  0  0
  7  8  1  0  0  0  0
  7  9  1  0  0  0  0
  7 10  1  0  0  0  0
 10 11  1  0  0  0  0
 10 12  1  0  0  0  0
 10 13  1  0  0  0  0
 13 14  1  0  0  0  0
 13 15  1  0  0  0  0
 13 16  1  0  0  0  0
 16 17  1  0  0  0  0
 16 18  1  0  0  0  0
 16 19  1  0  0  0  0
M  END
> <VM2 Rank>
14

> <Conf_Id>
268

> <Probability>
0.72

> <Sum Probability>
98.57

> <Delta G>
2.407

> <G>
-23.745

> <E>
-38.911

> <-TS>
15.166

> <U+W>
-54.113

> <U>
8.869

> <W>
-62.982

> <W(PB)>
-65.077

> <W(SA)>
2.095

> <Valence>
7.469

> <Coulomb>
0.762

> <VdW>
0.639

> <VdW6>
-6.782

> <VdW12>
7.421

> <Bond>
0.141

> <Angle>
2.667

> <Pdih>
4.660

> <Idih>
0.001

> <Tether>
0.000

$$$$
VeraChem MOL file


 19 18  0  0  0  0  0  0  0  0999 V2000     
   20.1990   19.1456   24.9736 C   0  0  0  0  0  0  0  0  0  0  0  0
   21.2081   18.4715   24.9123 O   0  5  0  0  0  0  0  0  0  0  0  0
   20.1027   20.1502   25.6507 O   0  0  0  0  0  0  0  0  0  0  0  0
   18.9749   18.6903   24.1839 C   0  0  0  0  0  0  0  0  0  0  0  0
   18.1272   18.6729   24.8789 H   0  0  0  0  0  0  0  0  0  0  0  0
   19.1306   17.6550   23.8597 H   0  0  0  0  0  0  0  0  0  0  0  0
   18.6262   19.5979   22.9725 C   0  0  0  0  0  0  0  0  0  0  0  0
   17.6998   19.2360   22.5063 H   0  0  0  0  0  0  0  0  0  0  0  0
   18.4097   20.6099   23.3415 H   0  0  0  0  0  0  0  0  0  0  0  0
   19.7368   19.6865   21.8972 C   0  0  0  0  0  0  0  0  0  0  0  0
   20.6553   20.0905   22.3448 H   0  0  0  0  0  0  0  0  0  0  0  0
   19.4225   20.4089   21.1316 H   0  0  0  0  0  0  0  0  0  0  0  0
   20.0436   18.3337   21.2170 C   0  0  0  0  0  0  0  0  0  0  0  0
   20.4486   17.6264   21.9532 H   0  0  0  0  0  0  0  0  0  0  0  0
   19.1155   17.8955   20.8250 H   0  0  0  0  0  0  0  0  0  0  0  0
   21.0588   18.4964   20.0679 C   0  0  0  0  0  0  0  0  0  0  0  0
   20.6714   19.1709   19.2931 H   0  0  0  0  0  0  0  0  0  0  0  0
   22.0070   18.9076   20.4383 H   0  0  0  0  0  0  0  0  0  0  0  0
   21.2701   17.5268   19.5985 H   0  0  0  0  0  0  0  0  0  0  0  0
  1  2  1  0  0  0  0
  1  3  2  0  0  0  0
  1  4  1  0  0  0  0
  4  5  1  0  0  0  0
  4  6  1  0  0  0  0
  4  7  1  0  0  0  0
  7  8  1  0  0  0  0
  7  9  1  0  0  0  0
  7 10  1  0  0  0  0
 10 11  1  0  0  0  0
 10 12  1  0  0  0  0
 10 13  1  0  0  0  0
 13 14  1  0  0  0  0
 13 15  1  0  0  0  0
 13 16  1  0  0  0  0
 16 17  1  0  0  0  0
 16 18  1  0  0  0  0
 16 19  1  0  0  0  0
M  END
> <VM2 Rank>
15

> <Conf_Id>
114

> <Probability>
0.45

> <Sum Probability>
99.02

> <Delta G>
2.696

> <G>
-23.456

> <E>
-38.650

> <-TS>
15.194

> <U+W>
-53.852

> <U>
9.751

> <W>
-63.603

> <W(PB)>
-65.658

> <W(SA)>
2.055

> <Valence>
7.453

> <Coulomb>
1.916

> <VdW>
0.382

> <VdW6>
-7.170

> <VdW12>
7.552

> <Bond>
0.153

> <Angle>
2.768

> <Pdih>
4.531

> <Idih>
0.001

> <Tether>
0.000

$$$$
VeraChem MOL file


 19 18  0  0  0  0  0  0  0  0999 V2000     
   20.0347   19.0210   24.9861 C   0  0  0  0  0  0  0  0  0  0  0  0
   20.4076   17.8646   24.9727 O   0  5  0  0  0  0  0  0  0  0  0  0
   19.1611   19.4363   25.7219 O   0  0  0  0  0  0  0  0  0  0  0  0
   20.7207   20.0139   24.0519 C   0  0  0  0  0  0  0  0  0  0  0  0
   21.6416   19.5588   23.6699 H   0  0  0  0  0  0  0  0  0  0  0  0
   21.0289   20.8728   24.6594 H   0  0  0  0  0  0  0  0  0  0  0  0
   19.8266   20.5080   22.8817 C   0  0  0  0  0  0  0  0  0  0  0  0
   18.9484   21.0183   23.3009 H   0  0  0  0  0  0  0  0  0  0  0  0
   20.3750   21.2643   22.3041 H   0  0  0  0  0  0  0  0  0  0  0  0
   19.3440   19.3887   21.9270 C   0  0  0  0  0  0  0  0  0  0  0  0
   18.6610   19.8316   21.1892 H   0  0  0  0  0  0  0  0  0  0  0  0
   18.7556   18.6500   22.4885 H   0  0  0  0  0  0  0  0  0  0  0  0
   20.4953   18.6762   21.1828 C   0  0  0  0  0  0  0  0  0  0  0  0
   21.1244   19.4188   20.6731 H   0  0  0  0  0  0  0  0  0  0  0  0
   21.1369   18.1483   21.9011 H   0  0  0  0  0  0  0  0  0  0  0  0
   19.9600   17.6633   20.1510 C   0  0  0  0  0  0  0  0  0  0  0  0
   19.3494   16.8925   20.6393 H   0  0  0  0  0  0  0  0  0  0  0  0
   19.3415   18.1626   19.3937 H   0  0  0  0  0  0  0  0  0  0  0  0
   20.7892   17.1623   19.6348 H   0  0  0  0  0  0  0  0  0  0  0  0
  1  2  1  0  0  0  0
  1  3  2  0  0  0  0
  1  4  1  0  0  0  0
  4  5  1  0  0  0  0
  4  6  1  0  0  0  0
  4  7  1  0  0  0  0
  7  8  1  0  0  0  0
  7  9  1  0  0  0  0
  7 10  1  0  0  0  0
 10 11  1  0  0  0  0
 10 12  1  0  0  0  0
 10 13  1  0  0  0  0
 13 14  1  0  0  0  0
 13 15  1  0  0  0  0
 13 16  1  0  0  0  0
 16 17  1  0  0  0  0
 16 18  1  0  0  0  0
 16 19  1  0  0  0  0
M  END
> <VM2 Rank>
16

> <Conf_Id>
275

> <Probability>
0.42

> <Sum Probability>
99.44

> <Delta G>
2.727

> <G>
-23.425

> <E>
-38.618

> <-TS>
15.194

> <U+W>
-53.820

> <U>
9.752

> <W>
-63.572

> <W(PB)>
-65.637

> <W(SA)>
2.065

> <Valence>
7.453

> <Coulomb>
1.917

> <VdW>
0.382

> <VdW6>
-7.170

> <VdW12>
7.552

> <Bond>
0.153

> <Angle>
2.767

> <Pdih>
4.530

> <Idih>
0.001

> <Tether>
0.000

$$$$
VeraChem MOL file


 19 18  0  0  0  0  0  0  0  0999 V2000     
   19.9002   19.3908   24.9433 C   0  0  0  0  0  0  0  0  0  0  0  0
   20.4266   18.7636   25.8414 O   0  5  0  0  0  0  0  0  0  0  0  0
   19.9589   20.6007   24.8458 O   0  0  0  0  0  0  0  0  0  0  0  0
   19.0962   18.6178   23.9015 C   0  0  0  0  0  0  0  0  0  0  0  0
   18.4691   19.3243   23.3457 H   0  0  0  0  0  0  0  0  0  0  0  0
   18.4116   17.9550   24.4435 H   0  0  0  0  0  0  0  0  0  0  0  0
   19.9636   17.7746   22.9274 C   0  0  0  0  0  0  0  0  0  0  0  0
   20.5285   17.0344   23.5106 H   0  0  0  0  0  0  0  0  0  0  0  0
   19.3059   17.1975   22.2647 H   0  0  0  0  0  0  0  0  0  0  0  0
   20.9621   18.6030   22.0783 C   0  0  0  0  0  0  0  0  0  0  0  0
   21.5388   17.9167   21.4435 H   0  0  0  0  0  0  0  0  0  0  0  0
   21.6915   19.0801   22.7472 H   0  0  0  0  0  0  0  0  0  0  0  0
   20.3216   19.6929   21.1844 C   0  0  0  0  0  0  0  0  0  0  0  0
   19.8264   20.4494   21.8081 H   0  0  0  0  0  0  0  0  0  0  0  0
   21.1225   20.2201   20.6482 H   0  0  0  0  0  0  0  0  0  0  0  0
   19.3209   19.1286   20.1529 C   0  0  0  0  0  0  0  0  0  0  0  0
   19.7908   18.3542   19.5328 H   0  0  0  0  0  0  0  0  0  0  0  0
   18.4441   18.6908   20.6462 H   0  0  0  0  0  0  0  0  0  0  0  0
   18.9649   19.9256   19.4875 H   0  0  0  0  0  0  0  0  0  0  0  0
  1  2  1  0  0  0  0
  1  3  2  0  0  0  0
  1  4  1  0  0  0  0
  4  5  1  0  0  0  0
  4  6  1  0  0  0  0
  4  7  1  0  0  0  0
  7  8  1  0  0  0  0
  7  9  1  0  0  0  0
  7 10  1  0  0  0  0
 10 11  1  0  0  0  0
 10 12  1  0  0  0  0
 10 13  1  0  0  0  0
 13 14  1  0  0  0  0
 13 15  1  0  0  0  0
 13 16  1  0  0  0  0
 16 17  1  0  0  0  0
 16 18  1  0  0  0  0
 16 19  1  0  0  0  0
M  END
> <VM2 Rank>
17

> <Conf_Id>
316

> <Probability>
0.08

> <Sum Probability>
99.53

> <Delta G>
3.689

> <G>
-22.463

> <E>
-38.007

> <-TS>
15.544

> <U+W>
-53.209

> <U>
10.214

> <W>
-63.423

> <W(PB)>
-65.453

> <W(SA)>
2.030

> <Valence>
7.868

> <Coulomb>
1.969

> <VdW>
0.378

> <VdW6>
-8.068

> <VdW12>
8.446

> <Bond>
0.191

> <Angle>
3.117

> <Pdih>
4.559

> <Idih>
0.001

> <Tether>
0.000

$$$$
VeraChem MOL file


 19 18  0  0  0  0  0  0  0  0999 V2000     
   19.8106   19.0625   25.2072 C   0  0  0  0  0  0  0  0  0  0  0  0
   20.5399   18.2448   25.7325 O   0  5  0  0  0  0  0  0  0  0  0  0
   19.2280   19.9351   25.8200 O   0  0  0  0  0  0  0  0  0  0  0  0
   19.6332   19.0036   23.6942 C   0  0  0  0  0  0  0  0  0  0  0  0
   18.6263   19.3655   23.4541 H   0  0  0  0  0  0  0  0  0  0  0  0
   19.6860   17.9508   23.3952 H   0  0  0  0  0  0  0  0  0  0  0  0
   20.6969   19.8331   22.9318 C   0  0  0  0  0  0  0  0  0  0  0  0
   20.7186   20.8481   23.3521 H   0  0  0  0  0  0  0  0  0  0  0  0
   21.6910   19.4030   23.1160 H   0  0  0  0  0  0  0  0  0  0  0  0
   20.4510   19.9393   21.4057 C   0  0  0  0  0  0  0  0  0  0  0  0
   21.2330   20.5894   20.9899 H   0  0  0  0  0  0  0  0  0  0  0  0
   19.5003   20.4547   21.2116 H   0  0  0  0  0  0  0  0  0  0  0  0
   20.4936   18.5892   20.6479 C   0  0  0  0  0  0  0  0  0  0  0  0
   20.9437   18.7560   19.6595 H   0  0  0  0  0  0  0  0  0  0  0  0
   21.1531   17.8807   21.1679 H   0  0  0  0  0  0  0  0  0  0  0  0
   19.0967   17.9644   20.4356 C   0  0  0  0  0  0  0  0  0  0  0  0
   19.1790   17.0210   19.8804 H   0  0  0  0  0  0  0  0  0  0  0  0
   18.5957   17.7500   21.3861 H   0  0  0  0  0  0  0  0  0  0  0  0
   18.4517   18.6386   19.8572 H   0  0  0  0  0  0  0  0  0  0  0  0
  1  2  1  0  0  0  0
  1  3  2  0  0  0  0
  1  4  1  0  0  0  0
  4  5  1  0  0  0  0
  4  6  1  0  0  0  0
  4  7  1  0  0  0  0
  7  8  1  0  0  0  0
  7  9  1  0  0  0  0
  7 10  1  0  0  0  0
 10 11  1  0  0  0  0
 10 12  1  0  0  0  0
 10 13  1  0  0  0  0
 13 14  1  0  0  0  0
 13 15  1  0  0  0  0
 13 16  1  0  0  0  0
 16 17  1  0  0  0  0
 16 18  1  0  0  0  0
 16 19  1  0  0  0  0
M  END
> <VM2 Rank>
18

> <Conf_Id>
121

> <Probability>
0.08

> <Sum Probability>
99.61

> <Delta G>
3.723

> <G>
-22.429

> <E>
-37.493

> <-TS>
15.064

> <U+W>
-52.695

> <U>
10.231

> <W>
-62.925

> <W(PB)>
-64.991

> <W(SA)>
2.066

> <Valence>
9.644

> <Coulomb>
-0.164

> <VdW>
0.751

> <VdW6>
-6.881

> <VdW12>
7.631

> <Bond>
0.163

> <Angle>
2.998

> <Pdih>
6.482

> <Idih>
0.001

> <Tether>
0.000

$$$$
VeraChem MOL file


 19 18  0  0  0  0  0  0  0  0999 V2000     
   20.0511   19.0745   24.9744 C   0  0  0  0  0  0  0  0  0  0  0  0
   21.0284   18.3582   25.0667 O   0  5  0  0  0  0  0  0  0  0  0  0
   19.8322   20.0102   25.7185 O   0  0  0  0  0  0  0  0  0  0  0  0
   19.0258   18.7653   23.8870 C   0  0  0  0  0  0  0  0  0  0  0  0
   18.0408   18.7322   24.3670 H   0  0  0  0  0  0  0  0  0  0  0  0
   19.2163   17.7577   23.5000 H   0  0  0  0  0  0  0  0  0  0  0  0
   18.9979   19.7989   22.7280 C   0  0  0  0  0  0  0  0  0  0  0  0
   18.1874   19.5420   22.0337 H   0  0  0  0  0  0  0  0  0  0  0  0
   18.7398   20.7837   23.1413 H   0  0  0  0  0  0  0  0  0  0  0  0
   20.3323   19.9231   21.9483 C   0  0  0  0  0  0  0  0  0  0  0  0
   21.1104   20.2980   22.6272 H   0  0  0  0  0  0  0  0  0  0  0  0
   20.2158   20.6898   21.1703 H   0  0  0  0  0  0  0  0  0  0  0  0
   20.8359   18.6150   21.2906 C   0  0  0  0  0  0  0  0  0  0  0  0
   21.7893   18.8223   20.7858 H   0  0  0  0  0  0  0  0  0  0  0  0
   21.0590   17.8662   22.0627 H   0  0  0  0  0  0  0  0  0  0  0  0
   19.8465   18.0268   20.2616 C   0  0  0  0  0  0  0  0  0  0  0  0
   20.2867   17.1550   19.7606 H   0  0  0  0  0  0  0  0  0  0  0  0
   18.9172   17.6990   20.7442 H   0  0  0  0  0  0  0  0  0  0  0  0
   19.5933   18.7677   19.4923 H   0  0  0  0  0  0  0  0  0  0  0  0
  1  2  1  0  0  0  0
  1  3  2  0  0  0  0
  1  4  1  0  0  0  0
  4  5  1  0  0  0  0
  4  6  1  0  0  0  0
  4  7  1  0  0  0  0
  7  8  1  0  0  0  0
  7  9  1  0  0  0  0
  7 10  1  0  0  0  0
 10 11  1  0  0  0  0
 10 12  1  0  0  0  0
 10 13  1  0  0  0  0
 13 14  1  0  0  0  0
 13 15  1  0  0  0  0
 13 16  1  0  0  0  0
 16 17  1  0  0  0  0
 16 18  1  0  0  0  0
 16 19  1  0  0  0  0
M  END
> <VM2 Rank>
19

> <Conf_Id>
262

> <Probability>
0.08

> <Sum Probability>
99.68

> <Delta G>
3.740

> <G>
-22.411

> <E>
-37.956

> <-TS>
15.544

> <U+W>
-53.158

> <U>
10.215

> <W>
-63.372

> <W(PB)>
-65.388

> <W(SA)>
2.016

> <Valence>
7.868

> <Coulomb>
1.969

> <VdW>
0.378

> <VdW6>
-8.068

> <VdW12>
8.446

> <Bond>
0.191

> <Angle>
3.117

> <Pdih>
4.559

> <Idih>
0.001

> <Tether>
0.000

$$$$
VeraChem MOL file


 19 18  0  0  0  0  0  0  0  0999 V2000     
   20.2414   19.4256   25.1681 C   0  0  0  0  0  0  0  0  0  0  0  0
   20.9795   18.6153   25.6925 O   0  5  0  0  0  0  0  0  0  0  0  0
   19.5455   20.2027   25.7911 O   0  0  0  0  0  0  0  0  0  0  0  0
   20.1682   19.4544   23.6456 C   0  0  0  0  0  0  0  0  0  0  0  0
   21.1604   19.1934   23.2611 H   0  0  0  0  0  0  0  0  0  0  0  0
   19.9527   20.4833   23.3335 H   0  0  0  0  0  0  0  0  0  0  0  0
   19.0996   18.4870   23.0771 C   0  0  0  0  0  0  0  0  0  0  0  0
   19.3781   17.4538   23.3264 H   0  0  0  0  0  0  0  0  0  0  0  0
   18.1450   18.6793   23.5861 H   0  0  0  0  0  0  0  0  0  0  0  0
   18.8742   18.6105   21.5492 C   0  0  0  0  0  0  0  0  0  0  0  0
   18.5039   19.6149   21.3023 H   0  0  0  0  0  0  0  0  0  0  0  0
   18.0645   17.9191   21.2781 H   0  0  0  0  0  0  0  0  0  0  0  0
   20.1112   18.2669   20.6827 C   0  0  0  0  0  0  0  0  0  0  0  0
   20.7531   17.5436   21.2043 H   0  0  0  0  0  0  0  0  0  0  0  0
   19.7692   17.7662   19.7664 H   0  0  0  0  0  0  0  0  0  0  0  0
   20.9303   19.5096   20.2688 C   0  0  0  0  0  0  0  0  0  0  0  0
   20.3135   20.2076   19.6877 H   0  0  0  0  0  0  0  0  0  0  0  0
   21.3233   20.0488   21.1380 H   0  0  0  0  0  0  0  0  0  0  0  0
   21.7833   19.2158   19.6436 H   0  0  0  0  0  0  0  0  0  0  0  0
  1  2  1  0  0  0  0
  1  3  2  0  0  0  0
  1  4  1  0  0  0  0
  4  5  1  0  0  0  0
  4  6  1  0  0  0  0
  4  7  1  0  0  0  0
  7  8  1  0  0  0  0
  7  9  1  0  0  0  0
  7 10  1  0  0  0  0
 10 11  1  0  0  0  0
 10 12  1  0  0  0  0
 10 13  1  0  0  0  0
 13 14  1  0  0  0  0
 13 15  1  0  0  0  0
 13 16  1  0  0  0  0
 16 17  1  0  0  0  0
 16 18  1  0  0  0  0
 16 19  1  0  0  0  0
M  END
> <VM2 Rank>
20

> <Conf_Id>
157

> <Probability>
0.08

> <Sum Probability>
99.76

> <Delta G>
3.741

> <G>
-22.411

> <E>
-37.475

> <-TS>
15.064

> <U+W>
-52.677

> <U>
10.231

> <W>
-62.908

> <W(PB)>
-64.975

> <W(SA)>
2.067

> <Valence>
9.644

> <Coulomb>
-0.164

> <VdW>
0.751

> <VdW6>
-6.881

> <VdW12>
7.631

> <Bond>
0.163

> <Angle>
2.998

> <Pdih>
6.482

> <Idih>
0.001

> <Tether>
0.000

$$$$
VeraChem MOL file


 19 18  0  0  0  0  0  0  0  0999 V2000     
   19.7658   19.0377   24.8684 C   0  0  0  0  0  0  0  0  0  0  0  0
   19.5077   17.8710   25.0900 O   0  5  0  0  0  0  0  0  0  0  0  0
   19.0141   19.9532   25.1405 O   0  0  0  0  0  0  0  0  0  0  0  0
   21.1357   19.3735   24.2817 C   0  0  0  0  0  0  0  0  0  0  0  0
   21.7045   18.4451   24.1495 H   0  0  0  0  0  0  0  0  0  0  0  0
   21.6629   19.9580   25.0446 H   0  0  0  0  0  0  0  0  0  0  0  0
   21.1095   20.1822   22.9542 C   0  0  0  0  0  0  0  0  0  0  0  0
   20.3754   20.9967   23.0261 H   0  0  0  0  0  0  0  0  0  0  0  0
   22.0876   20.6672   22.8337 H   0  0  0  0  0  0  0  0  0  0  0  0
   20.8428   19.3373   21.6839 C   0  0  0  0  0  0  0  0  0  0  0  0
   21.5842   18.5297   21.6144 H   0  0  0  0  0  0  0  0  0  0  0  0
   21.0024   19.9789   20.8066 H   0  0  0  0  0  0  0  0  0  0  0  0
   19.4191   18.7427   21.6103 C   0  0  0  0  0  0  0  0  0  0  0  0
   19.2813   17.9961   22.4028 H   0  0  0  0  0  0  0  0  0  0  0  0
   18.6758   19.5338   21.7808 H   0  0  0  0  0  0  0  0  0  0  0  0
   19.1553   18.0744   20.2459 C   0  0  0  0  0  0  0  0  0  0  0  0
   19.8702   17.2616   20.0627 H   0  0  0  0  0  0  0  0  0  0  0  0
   18.1435   17.6499   20.2131 H   0  0  0  0  0  0  0  0  0  0  0  0
   19.2444   18.8011   19.4279 H   0  0  0  0  0  0  0  0  0  0  0  0
  1  2  1  0  0  0  0
  1  3  2  0  0  0  0
  1  4  1  0  0  0  0
  4  5  1  0  0  0  0
  4  6  1  0  0  0  0
  4  7  1  0  0  0  0
  7  8  1  0  0  0  0
  7  9  1  0  0  0  0
  7 10  1  0  0  0  0
 10 11  1  0  0  0  0
 10 12  1  0  0  0  0
 10 13  1  0  0  0  0
 13 14  1  0  0  0  0
 13 15  1  0  0  0  0
 13 16  1  0  0  0  0
 16 17  1  0  0  0  0
 16 18  1  0  0  0  0
 16 19  1  0  0  0  0
M  END
> <VM2 Rank>
21

> <Conf_Id>
25

> <Probability>
0.06

> <Sum Probability>
99.82

> <Delta G>
3.877

> <G>
-22.275

> <E>
-37.624

> <-TS>
15.349

> <U+W>
-52.826

> <U>
10.967

> <W>
-63.794

> <W(PB)>
-65.830

> <W(SA)>
2.036

> <Valence>
8.609

> <Coulomb>
1.892

> <VdW>
0.467

> <VdW6>
-7.569

> <VdW12>
8.036

> <Bond>
0.170

> <Angle>
3.195

> <Pdih>
5.237

> <Idih>
0.007

> <Tether>
0.000

$$$$
VeraChem MOL file


 19 18  0  0  0  0  0  0  0  0999 V2000     
   19.6995   19.1767   24.8547 C   0  0  0  0  0  0  0  0  0  0  0  0
   19.9095   18.0760   25.3254 O   0  5  0  0  0  0  0  0  0  0  0  0
   18.6199   19.7322   24.9066 O   0  0  0  0  0  0  0  0  0  0  0  0
   20.8691   19.9325   24.2267 C   0  0  0  0  0  0  0  0  0  0  0  0
   21.5951   20.1001   25.0306 H   0  0  0  0  0  0  0  0  0  0  0  0
   20.5229   20.9225   23.9055 H   0  0  0  0  0  0  0  0  0  0  0  0
   21.5769   19.2023   23.0507 C   0  0  0  0  0  0  0  0  0  0  0  0
   22.5784   19.6383   22.9350 H   0  0  0  0  0  0  0  0  0  0  0  0
   21.7352   18.1455   23.3069 H   0  0  0  0  0  0  0  0  0  0  0  0
   20.8532   19.3154   21.6861 C   0  0  0  0  0  0  0  0  0  0  0  0
   21.5155   18.9031   20.9125 H   0  0  0  0  0  0  0  0  0  0  0  0
   20.7047   20.3740   21.4328 H   0  0  0  0  0  0  0  0  0  0  0  0
   19.5002   18.5727   21.6271 C   0  0  0  0  0  0  0  0  0  0  0  0
   19.6272   17.5390   21.9774 H   0  0  0  0  0  0  0  0  0  0  0  0
   18.7772   19.0530   22.2987 H   0  0  0  0  0  0  0  0  0  0  0  0
   18.9218   18.5640   20.1977 C   0  0  0  0  0  0  0  0  0  0  0  0
   18.7611   19.5872   19.8335 H   0  0  0  0  0  0  0  0  0  0  0  0
   19.6005   18.0542   19.5015 H   0  0  0  0  0  0  0  0  0  0  0  0
   17.9572   18.0405   20.1747 H   0  0  0  0  0  0  0  0  0  0  0  0
  1  2  1  0  0  0  0
  1  3  2  0  0  0  0
  1  4  1  0  0  0  0
  4  5  1  0  0  0  0
  4  6  1  0  0  0  0
  4  7  1  0  0  0  0
  7  8  1  0  0  0  0
  7  9  1  0  0  0  0
  7 10  1  0  0  0  0
 10 11  1  0  0  0  0
 10 12  1  0  0  0  0
 10 13  1  0  0  0  0
 13 14  1  0  0  0  0
 13 15  1  0  0  0  0
 13 16  1  0  0  0  0
 16 17  1  0  0  0  0
 16 18  1  0  0  0  0
 16 19  1  0  0  0  0
M  END
> <VM2 Rank>
22

> <Conf_Id>
49

> <Probability>
0.06

> <Sum Probability>
99.88

> <Delta G>
3.881

> <G>
-22.271

> <E>
-37.620

> <-TS>
15.350

> <U+W>
-52.822

> <U>
10.967

> <W>
-63.790

> <W(PB)>
-65.838

> <W(SA)>
2.048

> <Valence>
8.609

> <Coulomb>
1.892

> <VdW>
0.467

> <VdW6>
-7.569

> <VdW12>
8.036

> <Bond>
0.170

> <Angle>
3.195

> <Pdih>
5.237

> <Idih>
0.007

> <Tether>
0.000

$$$$
VeraChem MOL file


 19 18  0  0  0  0  0  0  0  0999 V2000     
   20.2427   19.2700   25.1812 C   0  0  0  0  0  0  0  0  0  0  0  0
   20.9860   18.3511   25.4629 O   0  5  0  0  0  0  0  0  0  0  0  0
   19.5488   19.8469   25.9949 O   0  0  0  0  0  0  0  0  0  0  0  0
   20.1614   19.7111   23.7242 C   0  0  0  0  0  0  0  0  0  0  0  0
   21.1449   19.5538   23.2705 H   0  0  0  0  0  0  0  0  0  0  0  0
   19.9715   20.7909   23.7079 H   0  0  0  0  0  0  0  0  0  0  0  0
   19.0554   18.9654   22.9315 C   0  0  0  0  0  0  0  0  0  0  0  0
   19.2109   17.8795   22.9955 H   0  0  0  0  0  0  0  0  0  0  0  0
   18.0937   19.1660   23.4238 H   0  0  0  0  0  0  0  0  0  0  0  0
   18.9548   19.4066   21.4493 C   0  0  0  0  0  0  0  0  0  0  0  0
   19.2664   20.4545   21.3417 H   0  0  0  0  0  0  0  0  0  0  0  0
   17.8965   19.3782   21.1558 H   0  0  0  0  0  0  0  0  0  0  0  0
   19.7372   18.5141   20.4546 C   0  0  0  0  0  0  0  0  0  0  0  0
   19.3568   17.4845   20.5059 H   0  0  0  0  0  0  0  0  0  0  0  0
   19.5318   18.8668   19.4345 H   0  0  0  0  0  0  0  0  0  0  0  0
   21.2637   18.5068   20.6764 C   0  0  0  0  0  0  0  0  0  0  0  0
   21.5242   18.0061   21.6173 H   0  0  0  0  0  0  0  0  0  0  0  0
   21.7666   17.9657   19.8646 H   0  0  0  0  0  0  0  0  0  0  0  0
   21.6637   19.5288   20.7010 H   0  0  0  0  0  0  0  0  0  0  0  0
  1  2  1  0  0  0  0
  1  3  2  0  0  0  0
  1  4  1  0  0  0  0
  4  5  1  0  0  0  0
  4  6  1  0  0  0  0
  4  7  1  0  0  0  0
  7  8  1  0  0  0  0
  7  9  1  0  0  0  0
  7 10  1  0  0  0  0
 10 11  1  0  0  0  0
 10 12  1  0  0  0  0
 10 13  1  0  0  0  0
 13 14  1  0  0  0  0
 13 15  1  0  0  0  0
 13 16  1  0  0  0  0
 16 17  1  0  0  0  0
 16 18  1  0  0  0  0
 16 19  1  0  0  0  0
M  END
> <VM2 Rank>
23

> <Conf_Id>
127

> <Probability>
0.05

> <Sum Probability>
99.93

> <Delta G>
3.993

> <G>
-22.158

> <E>
-37.232

> <-TS>
15.074

> <U+W>
-52.434

> <U>
10.422

> <W>
-62.856

> <W(PB)>
-64.913

> <W(SA)>
2.057

> <Valence>
9.628

> <Coulomb>
0.101

> <VdW>
0.693

> <VdW6>
-6.927

> <VdW12>
7.620

> <Bond>
0.173

> <Angle>
2.989

> <Pdih>
6.465

> <Idih>
0.000

> <Tether>
0.000

$$$$
VeraChem MOL file


 19 18  0  0  0  0  0  0  0  0999 V2000     
   19.9538   19.0267   25.2061 C   0  0  0  0  0  0  0  0  0  0  0  0
   20.7606   18.1612   25.4824 O   0  5  0  0  0  0  0  0  0  0  0  0
   19.5841   19.8766   25.9919 O   0  0  0  0  0  0  0  0  0  0  0  0
   19.3878   19.0596   23.7910 C   0  0  0  0  0  0  0  0  0  0  0  0
   18.3580   19.4321   23.8472 H   0  0  0  0  0  0  0  0  0  0  0  0
   19.3342   18.0290   23.4267 H   0  0  0  0  0  0  0  0  0  0  0  0
   20.2223   19.9481   22.8308 C   0  0  0  0  0  0  0  0  0  0  0  0
   20.2337   20.9682   23.2391 H   0  0  0  0  0  0  0  0  0  0  0  0
   21.2684   19.6124   22.8178 H   0  0  0  0  0  0  0  0  0  0  0  0
   19.6569   19.9979   21.3886 C   0  0  0  0  0  0  0  0  0  0  0  0
   19.8298   21.0065   20.9889 H   0  0  0  0  0  0  0  0  0  0  0  0
   18.5665   19.8650   21.4022 H   0  0  0  0  0  0  0  0  0  0  0  0
   20.3035   18.9910   20.4057 C   0  0  0  0  0  0  0  0  0  0  0  0
   19.8887   19.1674   19.4037 H   0  0  0  0  0  0  0  0  0  0  0  0
   21.3815   19.1898   20.3311 H   0  0  0  0  0  0  0  0  0  0  0  0
   20.0811   17.5108   20.7785 C   0  0  0  0  0  0  0  0  0  0  0  0
   20.4475   16.8546   19.9785 H   0  0  0  0  0  0  0  0  0  0  0  0
   20.6240   17.2479   21.6950 H   0  0  0  0  0  0  0  0  0  0  0  0
   19.0149   17.2979   20.9297 H   0  0  0  0  0  0  0  0  0  0  0  0
  1  2  1  0  0  0  0
  1  3  2  0  0  0  0
  1  4  1  0  0  0  0
  4  5  1  0  0  0  0
  4  6  1  0  0  0  0
  4  7  1  0  0  0  0
  7  8  1  0  0  0  0
  7  9  1  0  0  0  0
  7 10  1  0  0  0  0
 10 11  1  0  0  0  0
 10 12  1  0  0  0  0
 10 13  1  0  0  0  0
 13 14  1  0  0  0  0
 13 15  1  0  0  0  0
 13 16  1  0  0  0  0
 16 17  1  0  0  0  0
 16 18  1  0  0  0  0
 16 19  1  0  0  0  0
M  END
> <VM2 Rank>
24

> <Conf_Id>
158

> <Probability>
0.05

> <Sum Probability>
99.98

> <Delta G>
3.999

> <G>
-22.153

> <E>
-37.227

> <-TS>
15.074

> <U+W>
-52.429

> <U>
10.421

> <W>
-62.851

> <W(PB)>
-64.923

> <W(SA)>
2.072

> <Valence>
9.628

> <Coulomb>
0.101

> <VdW>
0.693

> <VdW6>
-6.927

> <VdW12>
7.620

> <Bond>
0.173

> <Angle>
2.989

> <Pdih>
6.466

> <Idih>
0.001

> <Tether>
0.000

$$$$
VeraChem MOL file


 19 18  0  0  0  0  0  0  0  0999 V2000     
   19.8147   19.3791   24.9740 C   0  0  0  0  0  0  0  0  0  0  0  0
   20.3971   18.8679   25.9103 O   0  5  0  0  0  0  0  0  0  0  0  0
   19.6335   20.5762   24.8699 O   0  0  0  0  0  0  0  0  0  0  0  0
   19.2569   18.4636   23.8874 C   0  0  0  0  0  0  0  0  0  0  0  0
   18.5155   19.0249   23.3099 H   0  0  0  0  0  0  0  0  0  0  0  0
   18.7151   17.6552   24.3921 H   0  0  0  0  0  0  0  0  0  0  0  0
   20.3423   17.8522   22.9584 C   0  0  0  0  0  0  0  0  0  0  0  0
   21.0942   17.3614   23.5919 H   0  0  0  0  0  0  0  0  0  0  0  0
   19.9005   17.0568   22.3433 H   0  0  0  0  0  0  0  0  0  0  0  0
   21.0547   18.8849   22.0466 C   0  0  0  0  0  0  0  0  0  0  0  0
   22.1022   18.5738   21.9333 H   0  0  0  0  0  0  0  0  0  0  0  0
   21.0879   19.8695   22.5327 H   0  0  0  0  0  0  0  0  0  0  0  0
   20.4522   19.0164   20.6261 C   0  0  0  0  0  0  0  0  0  0  0  0
   21.0791   19.7065   20.0448 H   0  0  0  0  0  0  0  0  0  0  0  0
   20.5042   18.0468   20.1119 H   0  0  0  0  0  0  0  0  0  0  0  0
   18.9984   19.5317   20.6024 C   0  0  0  0  0  0  0  0  0  0  0  0
   18.6785   19.7310   19.5716 H   0  0  0  0  0  0  0  0  0  0  0  0
   18.3091   18.7902   21.0247 H   0  0  0  0  0  0  0  0  0  0  0  0
   18.9021   20.4641   21.1741 H   0  0  0  0  0  0  0  0  0  0  0  0
  1  2  1  0  0  0  0
  1  3  2  0  0  0  0
  1  4  1  0  0  0  0
  4  5  1  0  0  0  0
  4  6  1  0  0  0  0
  4  7  1  0  0  0  0
  7  8  1  0  0  0  0
  7  9  1  0  0  0  0
  7 10  1  0  0  0  0
 10 11  1  0  0  0  0
 10 12  1  0  0  0  0
 10 13  1  0  0  0  0
 13 14  1  0  0  0  0
 13 15  1  0  0  0  0
 13 16  1  0  0  0  0
 16 17  1  0  0  0  0
 16 18  1  0  0  0  0
 16 19  1  0  0  0  0
M  END
> <VM2 Rank>
25

> <Conf_Id>
226

> <Probability>
0.00

> <Sum Probability>
99.99

> <Delta G>
5.600

> <G>
-20.551

> <E>
-35.983

> <-TS>
15.431

> <U+W>
-51.185

> <U>
12.334

> <W>
-63.519

> <W(PB)>
-65.542

> <W(SA)>
2.022

> <Valence>
9.984

> <Coulomb>
1.768

> <VdW>
0.583

> <VdW6>
-7.767

> <VdW12>
8.349

> <Bond>
0.203

> <Angle>
3.192

> <Pdih>
6.588

> <Idih>
0.001

> <Tether>
0.000

$$$$
VeraChem MOL file


 19 18  0  0  0  0  0  0  0  0999 V2000     
   20.0010   19.4545   24.9683 C   0  0  0  0  0  0  0  0  0  0  0  0
   19.9880   18.7024   25.9229 O   0  5  0  0  0  0  0  0  0  0  0  0
   19.2937   20.4387   24.8804 O   0  0  0  0  0  0  0  0  0  0  0  0
   20.9794   19.1603   23.8341 C   0  0  0  0  0  0  0  0  0  0  0  0
   21.9565   18.9664   24.2917 H   0  0  0  0  0  0  0  0  0  0  0  0
   21.0905   20.0666   23.2302 H   0  0  0  0  0  0  0  0  0  0  0  0
   20.5761   17.9468   22.9512 C   0  0  0  0  0  0  0  0  0  0  0  0
   21.4129   17.6686   22.2965 H   0  0  0  0  0  0  0  0  0  0  0  0
   20.4113   17.0852   23.6130 H   0  0  0  0  0  0  0  0  0  0  0  0
   19.2991   18.1748   22.1009 C   0  0  0  0  0  0  0  0  0  0  0  0
   18.6172   18.8702   22.6092 H   0  0  0  0  0  0  0  0  0  0  0  0
   18.7578   17.2211   22.0369 H   0  0  0  0  0  0  0  0  0  0  0  0
   19.5646   18.6573   20.6536 C   0  0  0  0  0  0  0  0  0  0  0  0
   20.1735   17.9129   20.1222 H   0  0  0  0  0  0  0  0  0  0  0  0
   18.6046   18.7054   20.1214 H   0  0  0  0  0  0  0  0  0  0  0  0
   20.2481   20.0372   20.5637 C   0  0  0  0  0  0  0  0  0  0  0  0
   21.2802   19.9920   20.9327 H   0  0  0  0  0  0  0  0  0  0  0  0
   20.2845   20.3805   19.5217 H   0  0  0  0  0  0  0  0  0  0  0  0
   19.6999   20.7868   21.1492 H   0  0  0  0  0  0  0  0  0  0  0  0
  1  2  1  0  0  0  0
  1  3  2  0  0  0  0
  1  4  1  0  0  0  0
  4  5  1  0  0  0  0
  4  6  1  0  0  0  0
  4  7  1  0  0  0  0
  7  8  1  0  0  0  0
  7  9  1  0  0  0  0
  7 10  1  0  0  0  0
 10 11  1  0  0  0  0
 10 12  1  0  0  0  0
 10 13  1  0  0  0  0
 13 14  1  0  0  0  0
 13 15  1  0  0  0  0
 13 16  1  0  0  0  0
 16 17  1  0  0  0  0
 16 18  1  0  0  0  0
 16 19  1  0  0  0  0
M  END
> <VM2 Rank>
26

> <Conf_Id>
68

> <Probability>
0.00

> <Sum Probability>
99.99

> <Delta G>
5.624

> <G>
-20.528

> <E>
-35.960

> <-TS>
15.431

> <U+W>
-51.162

> <U>
12.335

> <W>
-63.497

> <W(PB)>
-65.523

> <W(SA)>
2.027

> <Valence>
9.984

> <Coulomb>
1.768

> <VdW>
0.582

> <VdW6>
-7.767

> <VdW12>
8.349

> <Bond>
0.203

> <Angle>
3.192

> <Pdih>
6.589

> <Idih>
0.001

> <Tether>
0.000

$$$$
VeraChem MOL file


 19 18  0  0  0  0  0  0  0  0999 V2000     
   19.7443   19.0154   24.7146 C   0  0  0  0  0  0  0  0  0  0  0  0
   19.8980   17.8632   25.0697 O   0  5  0  0  0  0  0  0  0  0  0  0
   18.7005   19.6239   24.8479 O   0  0  0  0  0  0  0  0  0  0  0  0
   20.9580   19.7727   24.1795 C   0  0  0  0  0  0  0  0  0  0  0  0
   21.8425   19.1286   24.2543 H   0  0  0  0  0  0  0  0  0  0  0  0
   21.1235   20.6124   24.8645 H   0  0  0  0  0  0  0  0  0  0  0  0
   20.8120   20.3236   22.7331 C   0  0  0  0  0  0  0  0  0  0  0  0
   19.8208   20.7772   22.6006 H   0  0  0  0  0  0  0  0  0  0  0  0
   21.5314   21.1447   22.6127 H   0  0  0  0  0  0  0  0  0  0  0  0
   21.0959   19.2888   21.6132 C   0  0  0  0  0  0  0  0  0  0  0  0
   22.1059   18.8804   21.7533 H   0  0  0  0  0  0  0  0  0  0  0  0
   21.1159   19.8152   20.6492 H   0  0  0  0  0  0  0  0  0  0  0  0
   20.0928   18.1149   21.5093 C   0  0  0  0  0  0  0  0  0  0  0  0
   20.4244   17.4437   20.7053 H   0  0  0  0  0  0  0  0  0  0  0  0
   20.1111   17.5157   22.4284 H   0  0  0  0  0  0  0  0  0  0  0  0
   18.6486   18.5696   21.2078 C   0  0  0  0  0  0  0  0  0  0  0  0
   18.2313   19.1489   22.0414 H   0  0  0  0  0  0  0  0  0  0  0  0
   18.6116   19.1899   20.3030 H   0  0  0  0  0  0  0  0  0  0  0  0
   17.9977   17.7001   21.0503 H   0  0  0  0  0  0  0  0  0  0  0  0
  1  2  1  0  0  0  0
  1  3  2  0  0  0  0
  1  4  1  0  0  0  0
  4  5  1  0  0  0  0
  4  6  1  0  0  0  0
  4  7  1  0  0  0  0
  7  8  1  0  0  0  0
  7  9  1  0  0  0  0
  7 10  1  0  0  0  0
 10 11  1  0  0  0  0
 10 12  1  0  0  0  0
 10 13  1  0  0  0  0
 13 14  1  0  0  0  0
 13 15  1  0  0  0  0
 13 16  1  0  0  0  0
 16 17  1  0  0  0  0
 16 18  1  0  0  0  0
 16 19  1  0  0  0  0
M  END
> <VM2 Rank>
27

> <Conf_Id>
284

> <Probability>
0.00

> <Sum Probability>
99.99

> <Delta G>
5.644

> <G>
-20.508

> <E>
-36.490

> <-TS>
15.981

> <U+W>
-51.692

> <U>
12.631

> <W>
-64.323

> <W(PB)>
-66.284

> <W(SA)>
1.961

> <Valence>
9.239

> <Coulomb>
3.216

> <VdW>
0.176

> <VdW6>
-8.727

> <VdW12>
8.903

> <Bond>
0.204

> <Angle>
3.670

> <Pdih>
5.348

> <Idih>
0.019

> <Tether>
0.000

$$$$
VeraChem MOL file


 19 18  0  0  0  0  0  0  0  0999 V2000     
   20.2643   19.3259   24.6898 C   0  0  0  0  0  0  0  0  0  0  0  0
   21.2292   18.6580   25.0065 O   0  5  0  0  0  0  0  0  0  0  0  0
   20.2314   20.5379   24.7754 O   0  0  0  0  0  0  0  0  0  0  0  0
   18.9885   18.5967   24.2730 C   0  0  0  0  0  0  0  0  0  0  0  0
   18.2204   18.8789   25.0023 H   0  0  0  0  0  0  0  0  0  0  0  0
   19.1424   17.5164   24.3825 H   0  0  0  0  0  0  0  0  0  0  0  0
   18.4722   18.9266   22.8442 C   0  0  0  0  0  0  0  0  0  0  0  0
   17.4026   18.6796   22.8088 H   0  0  0  0  0  0  0  0  0  0  0  0
   18.5321   20.0077   22.6617 H   0  0  0  0  0  0  0  0  0  0  0  0
   19.1693   18.1385   21.7046 C   0  0  0  0  0  0  0  0  0  0  0  0
   18.6298   18.3309   20.7672 H   0  0  0  0  0  0  0  0  0  0  0  0
   19.0613   17.0626   21.8978 H   0  0  0  0  0  0  0  0  0  0  0  0
   20.6671   18.4578   21.4820 C   0  0  0  0  0  0  0  0  0  0  0  0
   21.2493   18.1952   22.3743 H   0  0  0  0  0  0  0  0  0  0  0  0
   21.0442   17.8138   20.6758 H   0  0  0  0  0  0  0  0  0  0  0  0
   20.9280   19.9306   21.0996 C   0  0  0  0  0  0  0  0  0  0  0  0
   20.3371   20.2202   20.2211 H   0  0  0  0  0  0  0  0  0  0  0  0
   20.6743   20.6073   21.9255 H   0  0  0  0  0  0  0  0  0  0  0  0
   21.9884   20.0827   20.8607 H   0  0  0  0  0  0  0  0  0  0  0  0
  1  2  1  0  0  0  0
  1  3  2  0  0  0  0
  1  4  1  0  0  0  0
  4  5  1  0  0  0  0
  4  6  1  0  0  0  0
  4  7  1  0  0  0  0
  7  8  1  0  0  0  0
  7  9  1  0  0  0  0
  7 10  1  0  0  0  0
 10 11  1  0  0  0  0
 10 12  1  0  0  0  0
 10 13  1  0  0  0  0
 13 14  1  0  0  0  0
 13 15  1  0  0  0  0
 13 16  1  0  0  0  0
 16 17  1  0  0  0  0
 16 18  1  0  0  0  0
 16 19  1  0  0  0  0
M  END
> <VM2 Rank>
28

> <Conf_Id>
108

> <Probability>
0.00

> <Sum Probability>
100.00

> <Delta G>
5.657

> <G>
-20.495

> <E>
-36.476

> <-TS>
15.981

> <U+W>
-51.678

> <U>
12.630

> <W>
-64.308

> <W(PB)>
-66.285

> <W(SA)>
1.977

> <Valence>
9.239

> <Coulomb>
3.215

> <VdW>
0.176

> <VdW6>
-8.726

> <VdW12>
8.902

> <Bond>
0.204

> <Angle>
3.670

> <Pdih>
5.348

> <Idih>
0.018

> <Tether>
0.000

$$$$
VeraChem MOL file


 19 18  0  0  0  0  0  0  0  0999 V2000     
   19.9749   19.5028   24.7725 C   0  0  0  0  0  0  0  0  0  0  0  0
   20.6943   18.9629   25.5903 O   0  5  0  0  0  0  0  0  0  0  0  0
   19.9392   20.7057   24.6048 O   0  0  0  0  0  0  0  0  0  0  0  0
   19.0217   18.6285   23.9598 C   0  0  0  0  0  0  0  0  0  0  0  0
   18.3970   19.2689   23.3279 H   0  0  0  0  0  0  0  0  0  0  0  0
   18.3446   18.1460   24.6740 H   0  0  0  0  0  0  0  0  0  0  0  0
   19.7211   17.5368   23.1058 C   0  0  0  0  0  0  0  0  0  0  0  0
   20.2987   16.8869   23.7777 H   0  0  0  0  0  0  0  0  0  0  0  0
   18.9570   16.8950   22.6470 H   0  0  0  0  0  0  0  0  0  0  0  0
   20.6676   18.0705   22.0004 C   0  0  0  0  0  0  0  0  0  0  0  0
   21.1912   17.2050   21.5720 H   0  0  0  0  0  0  0  0  0  0  0  0
   21.4511   18.7032   22.4401 H   0  0  0  0  0  0  0  0  0  0  0  0
   19.9537   18.8143   20.8441 C   0  0  0  0  0  0  0  0  0  0  0  0
   20.4579   18.5609   19.9012 H   0  0  0  0  0  0  0  0  0  0  0  0
   18.9191   18.4592   20.7414 H   0  0  0  0  0  0  0  0  0  0  0  0
   19.9775   20.3506   20.9972 C   0  0  0  0  0  0  0  0  0  0  0  0
   19.4880   20.8301   20.1398 H   0  0  0  0  0  0  0  0  0  0  0  0
   19.4576   20.6776   21.9047 H   0  0  0  0  0  0  0  0  0  0  0  0
   21.0091   20.7225   21.0471 H   0  0  0  0  0  0  0  0  0  0  0  0
  1  2  1  0  0  0  0
  1  3  2  0  0  0  0
  1  4  1  0  0  0  0
  4  5  1  0  0  0  0
  4  6  1  0  0  0  0
  4  7  1  0  0  0  0
  7  8  1  0  0  0  0
  7  9  1  0  0  0  0
  7 10  1  0  0  0  0
 10 11  1  0  0  0  0
 10 12  1  0  0  0  0
 10 13  1  0  0  0  0
 13 14  1  0  0  0  0
 13 15  1  0  0  0  0
 13 16  1  0  0  0  0
 16 17  1  0  0  0  0
 16 18  1  0  0  0  0
 16 19  1  0  0  0  0
M  END
> <VM2 Rank>
29

> <Conf_Id>
299

> <Probability>
0.00

> <Sum Probability>
100.00

> <Delta G>
6.283

> <G>
-19.869

> <E>
-35.295

> <-TS>
15.426

> <U+W>
-50.497

> <U>
13.497

> <W>
-63.994

> <W(PB)>
-65.982

> <W(SA)>
1.987

> <Valence>
10.296

> <Coulomb>
2.919

> <VdW>
0.283

> <VdW6>
-8.220

> <VdW12>
8.503

> <Bond>
0.193

> <Angle>
3.406

> <Pdih>
6.692

> <Idih>
0.005

> <Tether>
0.000

$$$$
VeraChem MOL file


 19 18  0  0  0  0  0  0  0  0999 V2000     
   20.1977   19.0360   24.8184 C   0  0  0  0  0  0  0  0  0  0  0  0
   21.1153   18.2402   24.8479 O   0  5  0  0  0  0  0  0  0  0  0  0
   20.1741   20.0540   25.4824 O   0  0  0  0  0  0  0  0  0  0  0  0
   18.9827   18.7103   23.9518 C   0  0  0  0  0  0  0  0  0  0  0  0
   18.1284   18.5991   24.6295 H   0  0  0  0  0  0  0  0  0  0  0  0
   19.1297   17.7332   23.4792 H   0  0  0  0  0  0  0  0  0  0  0  0
   18.6474   19.7865   22.8843 C   0  0  0  0  0  0  0  0  0  0  0  0
   17.7044   19.5195   22.3886 H   0  0  0  0  0  0  0  0  0  0  0  0
   18.4601   20.7395   23.3983 H   0  0  0  0  0  0  0  0  0  0  0  0
   19.7412   20.0117   21.8092 C   0  0  0  0  0  0  0  0  0  0  0  0
   20.6908   20.2962   22.2832 H   0  0  0  0  0  0  0  0  0  0  0  0
   19.4369   20.8807   21.2099 H   0  0  0  0  0  0  0  0  0  0  0  0
   19.9517   18.8186   20.8437 C   0  0  0  0  0  0  0  0  0  0  0  0
   19.0318   18.2231   20.7647 H   0  0  0  0  0  0  0  0  0  0  0  0
   20.1465   19.2135   19.8370 H   0  0  0  0  0  0  0  0  0  0  0  0
   21.1400   17.9147   21.2373 C   0  0  0  0  0  0  0  0  0  0  0  0
   21.2658   17.1051   20.5069 H   0  0  0  0  0  0  0  0  0  0  0  0
   22.0749   18.4892   21.2674 H   0  0  0  0  0  0  0  0  0  0  0  0
   20.9947   17.4566   22.2221 H   0  0  0  0  0  0  0  0  0  0  0  0
  1  2  1  0  0  0  0
  1  3  2  0  0  0  0
  1  4  1  0  0  0  0
  4  5  1  0  0  0  0
  4  6  1  0  0  0  0
  4  7  1  0  0  0  0
  7  8  1  0  0  0  0
  7  9  1  0  0  0  0
  7 10  1  0  0  0  0
 10 11  1  0  0  0  0
 10 12  1  0  0  0  0
 10 13  1  0  0  0  0
 13 14  1  0  0  0  0
 13 15  1  0  0  0  0
 13 16  1  0  0  0  0
 16 17  1  0  0  0  0
 16 18  1  0  0  0  0
 16 19  1  0  0  0  0
M  END
> <VM2 Rank>
30

> <Conf_Id>
96

> <Probability>
0.00

> <Sum Probability>
100.00

> <Delta G>
6.330

> <G>
-19.822

> <E>
-35.249

> <-TS>
15.427

> <U+W>
-50.451

> <U>
13.498

> <W>
-63.949

> <W(PB)>
-65.956

> <W(SA)>
2.007

> <Valence>
10.296

> <Coulomb>
2.919

> <VdW>
0.283

> <VdW6>
-8.221

> <VdW12>
8.503

> <Bond>
0.193

> <Angle>
3.406

> <Pdih>
6.691

> <Idih>
0.005

> <Tether>
0.000

$$$$
VeraChem MOL file


 19 18  0  0  0  0  0  0  0  0999 V2000     
   20.1050   19.5334   24.6357 C   0  0  0  0  0  0  0  0  0  0  0  0
   21.0797   18.9614   25.0839 O   0  5  0  0  0  0  0  0  0  0  0  0
   19.9598   20.7389   24.6858 O   0  0  0  0  0  0  0  0  0  0  0  0
   18.9453   18.6950   24.0958 C   0  0  0  0  0  0  0  0  0  0  0  0
   18.2265   19.3573   23.5987 H   0  0  0  0  0  0  0  0  0  0  0  0
   18.4348   18.2835   24.9740 H   0  0  0  0  0  0  0  0  0  0  0  0
   19.3401   17.5246   23.1504 C   0  0  0  0  0  0  0  0  0  0  0  0
   20.2398   17.0216   23.5310 H   0  0  0  0  0  0  0  0  0  0  0  0
   18.5398   16.7734   23.1916 H   0  0  0  0  0  0  0  0  0  0  0  0
   19.5405   17.9103   21.6624 C   0  0  0  0  0  0  0  0  0  0  0  0
   18.6078   18.3216   21.2525 H   0  0  0  0  0  0  0  0  0  0  0  0
   19.7250   16.9825   21.1037 H   0  0  0  0  0  0  0  0  0  0  0  0
   20.7195   18.8755   21.3898 C   0  0  0  0  0  0  0  0  0  0  0  0
   21.4541   18.8247   22.2053 H   0  0  0  0  0  0  0  0  0  0  0  0
   21.2468   18.5443   20.4846 H   0  0  0  0  0  0  0  0  0  0  0  0
   20.2601   20.3330   21.1712 C   0  0  0  0  0  0  0  0  0  0  0  0
   19.7121   20.7161   22.0399 H   0  0  0  0  0  0  0  0  0  0  0  0
   21.1244   20.9882   21.0030 H   0  0  0  0  0  0  0  0  0  0  0  0
   19.6029   20.4090   20.2953 H   0  0  0  0  0  0  0  0  0  0  0  0
  1  2  1  0  0  0  0
  1  3  2  0  0  0  0
  1  4  1  0  0  0  0
  4  5  1  0  0  0  0
  4  6  1  0  0  0  0
  4  7  1  0  0  0  0
  7  8  1  0  0  0  0
  7  9  1  0  0  0  0
  7 10  1  0  0  0  0
 10 11  1  0  0  0  0
 10 12  1  0  0  0  0
 10 13  1  0  0  0  0
 13 14  1  0  0  0  0
 13 15  1  0  0  0  0
 13 16  1  0  0  0  0
 16 17  1  0  0  0  0
 16 18  1  0  0  0  0
 16 19  1  0  0  0  0
M  END
> <VM2 Rank>
31

> <Conf_Id>
229

> <Probability>
0.00

> <Sum Probability>
100.00

> <Delta G>
8.074

> <G>
-18.078

> <E>
-33.868

> <-TS>
15.790

> <U+W>
-49.070

> <U>
15.324

> <W>
-64.394

> <W(PB)>
-66.380

> <W(SA)>
1.986

> <Valence>
11.748

> <Coulomb>
3.201

> <VdW>
0.375

> <VdW6>
-8.854

> <VdW12>
9.229

> <Bond>
0.216

> <Angle>
3.812

> <Pdih>
7.699

> <Idih>
0.022

> <Tether>
0.000

$$$$
VeraChem MOL file


 19 18  0  0  0  0  0  0  0  0999 V2000     
   20.3139   19.0956   24.6787 C   0  0  0  0  0  0  0  0  0  0  0  0
   21.1476   18.2484   24.9313 O   0  5  0  0  0  0  0  0  0  0  0  0
   20.4551   20.2712   24.9548 O   0  0  0  0  0  0  0  0  0  0  0  0
   18.9752   18.6323   24.1019 C   0  0  0  0  0  0  0  0  0  0  0  0
   18.2685   18.6322   24.9397 H   0  0  0  0  0  0  0  0  0  0  0  0
   19.0693   17.5906   23.7726 H   0  0  0  0  0  0  0  0  0  0  0  0
   18.3941   19.5078   22.9551 C   0  0  0  0  0  0  0  0  0  0  0  0
   17.3058   19.3604   22.9368 H   0  0  0  0  0  0  0  0  0  0  0  0
   18.5461   20.5722   23.1813 H   0  0  0  0  0  0  0  0  0  0  0  0
   18.9312   19.1877   21.5366 C   0  0  0  0  0  0  0  0  0  0  0  0
   18.3749   19.8130   20.8249 H   0  0  0  0  0  0  0  0  0  0  0  0
   18.6898   18.1497   21.2694 H   0  0  0  0  0  0  0  0  0  0  0  0
   20.4415   19.4583   21.3323 C   0  0  0  0  0  0  0  0  0  0  0  0
   20.5882   19.9249   20.3485 H   0  0  0  0  0  0  0  0  0  0  0  0
   20.8048   20.1860   22.0711 H   0  0  0  0  0  0  0  0  0  0  0  0
   21.2915   18.1707   21.3843 C   0  0  0  0  0  0  0  0  0  0  0  0
   22.3559   18.4065   21.2573 H   0  0  0  0  0  0  0  0  0  0  0  0
   21.1745   17.6503   22.3420 H   0  0  0  0  0  0  0  0  0  0  0  0
   21.0011   17.4775   20.5842 H   0  0  0  0  0  0  0  0  0  0  0  0
  1  2  1  0  0  0  0
  1  3  2  0  0  0  0
  1  4  1  0  0  0  0
  4  5  1  0  0  0  0
  4  6  1  0  0  0  0
  4  7  1  0  0  0  0
  7  8  1  0  0  0  0
  7  9  1  0  0  0  0
  7 10  1  0  0  0  0
 10 11  1  0  0  0  0
 10 12  1  0  0  0  0
 10 13  1  0  0  0  0
 13 14  1  0  0  0  0
 13 15  1  0  0  0  0
 13 16  1  0  0  0  0
 16 17  1  0  0  0  0
 16 18  1  0  0  0  0
 16 19  1  0  0  0  0
M  END
> <VM2 Rank>
32

> <Conf_Id>
228

> <Probability>
0.00

> <Sum Probability>
100.00

> <Delta G>
8.154

> <G>
-17.997

> <E>
-33.787

> <-TS>
15.790

> <U+W>
-48.989

> <U>
15.323

> <W>
-64.312

> <W(PB)>
-66.302

> <W(SA)>
1.990

> <Valence>
11.748

> <Coulomb>
3.200

> <VdW>
0.375

> <VdW6>
-8.854

> <VdW12>
9.229

> <Bond>
0.216

> <Angle>
3.812

> <Pdih>
7.699

> <Idih>
0.021

> <Tether>
0.000

$$$$
