@<TRIPOS>MOLECULE
guest-s14_vm2.mol2 : vm2 ligand conformer 1
          26          25           1
SMALL
USER_CHARGES
 
@<TRIPOS>ATOM
       1    C1      19.905242   19.310654   18.816232 C.3        1 MOL1        -0.2400
       2    H1      20.294539   20.336914   18.794256 H          1 MOL1         0.0971
       3    H2      20.278689   18.789459   17.925198 H          1 MOL1         0.0971
       4    H3      18.810784   19.358496   18.744701 H          1 MOL1         0.0971
       5    C2      20.345723   18.577600   20.101041 C.3        1 MOL1        -0.1385
       6    H4      21.442719   18.515742   20.127544 H          1 MOL1         0.0960
       7    H5      19.970431   17.544851   20.078356 H          1 MOL1         0.0960
       8    C3      19.832668   19.291246   21.371390 C.3        1 MOL1        -0.1409
       9    H6      20.208340   20.323732   21.388345 H          1 MOL1         0.0960
      10    H7      18.736016   19.352628   21.339244 H          1 MOL1         0.0960
      11    C4      20.271902   18.560157   22.660169 C.3        1 MOL1        -0.1409
      12    H8      21.368624   18.498931   22.691308 H          1 MOL1         0.0960
      13    H9      19.896194   17.527667   22.642165 H          1 MOL1         0.0960
      14    C5      19.758287   19.274504   23.930780 C.3        1 MOL1        -0.1409
      15    H10     20.133955   20.307134   23.949228 H          1 MOL1         0.0960
      16    H11     18.661443   19.335945   23.900008 H          1 MOL1         0.0960
      17    C6      20.196808   18.544302   25.219269 C.3        1 MOL1        -0.1450
      18    H12     21.292832   18.485485   25.256417 H          1 MOL1         0.0960
      19    H13     19.818753   17.513265   25.207123 H          1 MOL1         0.0960
      20    C7      19.680239   19.263714   26.477703 C.3        1 MOL1         0.0172
      21    H14     20.067622   20.285865   26.502603 H          1 MOL1         0.0934
      22    H15     18.588125   19.310181   26.453059 H          1 MOL1         0.0934
      23    N1      20.090131   18.576824   27.764415 N.4        1 MOL1        -0.5956
      24    H16     19.735945   19.071996   28.590141 H          1 MOL1         0.3624
      25    H17     21.109456   18.525017   27.862158 H          1 MOL1         0.3624
      26    H18     19.732799   17.617184   27.816069 H          1 MOL1         0.3624
@<TRIPOS>BOND
    1     1     2    1
    2     1     3    1
    3     1     4    1
    4     1     5    1
    5     5     6    1
    6     5     7    1
    7     5     8    1
    8     8     9    1
    9     8    10    1
   10     8    11    1
   11    11    12    1
   12    11    13    1
   13    11    14    1
   14    14    15    1
   15    14    16    1
   16    14    17    1
   17    17    18    1
   18    17    19    1
   19    17    20    1
   20    20    21    1
   21    20    22    1
   22    20    23    1
   23    23    24    1
   24    23    25    1
   25    23    26    1
@<TRIPOS>SUBSTRUCTURE
       1 MOL1            1 RESIDUE      1      MOL     
@<SCITEGIC>MOL_PROPERTY
VM2 Rank
SciTegic.value.IntegerValue
1

@<SCITEGIC>MOL_PROPERTY
Conf_Id
SciTegic.value.IntegerValue
316

@<SCITEGIC>MOL_PROPERTY
Probability
SciTegic.value.DoubleValue
7.71

@<SCITEGIC>MOL_PROPERTY
Sum Probability
SciTegic.value.DoubleValue
7.71

@<SCITEGIC>MOL_PROPERTY
Delta G
SciTegic.value.DoubleValue
0.000

@<SCITEGIC>MOL_PROPERTY
G
SciTegic.value.DoubleValue
48.261

@<SCITEGIC>MOL_PROPERTY
E
SciTegic.value.DoubleValue
15.909

@<SCITEGIC>MOL_PROPERTY
-TS
SciTegic.value.DoubleValue
32.352

@<SCITEGIC>MOL_PROPERTY
U+W
SciTegic.value.DoubleValue
-5.553

@<SCITEGIC>MOL_PROPERTY
U
SciTegic.value.DoubleValue
47.192

@<SCITEGIC>MOL_PROPERTY
W
SciTegic.value.DoubleValue
-52.743

@<SCITEGIC>MOL_PROPERTY
W(PB)
SciTegic.value.DoubleValue
-55.134

@<SCITEGIC>MOL_PROPERTY
W(SA)
SciTegic.value.DoubleValue
2.391

@<SCITEGIC>MOL_PROPERTY
Valence
SciTegic.value.DoubleValue
2.156

@<SCITEGIC>MOL_PROPERTY
Coulomb
SciTegic.value.DoubleValue
44.449

@<SCITEGIC>MOL_PROPERTY
VdW
SciTegic.value.DoubleValue
0.587

@<SCITEGIC>MOL_PROPERTY
VdW6
SciTegic.value.DoubleValue
-5.761

@<SCITEGIC>MOL_PROPERTY
VdW12
SciTegic.value.DoubleValue
6.348

@<SCITEGIC>MOL_PROPERTY
Bond
SciTegic.value.DoubleValue
0.129

@<SCITEGIC>MOL_PROPERTY
Angle
SciTegic.value.DoubleValue
0.393

@<SCITEGIC>MOL_PROPERTY
Pdih
SciTegic.value.DoubleValue
1.634

@<SCITEGIC>MOL_PROPERTY
Idih
SciTegic.value.DoubleValue
0.000

@<SCITEGIC>MOL_PROPERTY
Tether
SciTegic.value.DoubleValue
0.000

@<TRIPOS>MOLECULE
guest-s14_vm2.mol2 : vm2 ligand conformer 2
          26          25           1
SMALL
USER_CHARGES
 
@<TRIPOS>ATOM
       1    C1      20.140804   19.649892   19.000844 C.3        1 MOL1        -0.2400
       2    H1      19.134736   20.085336   18.942032 H          1 MOL1         0.0971
       3    H2      20.862085   20.469640   19.114896 H          1 MOL1         0.0971
       4    H3      20.347700   19.149431   18.045971 H          1 MOL1         0.0971
       5    C2      20.245561   18.651602   20.173266 C.3        1 MOL1        -0.1385
       6    H4      21.251011   18.207932   20.185546 H          1 MOL1         0.0960
       7    H5      19.536981   17.826685   20.014040 H          1 MOL1         0.0960
       8    C3      19.958635   19.331014   21.530603 C.3        1 MOL1        -0.1409
       9    H6      20.667835   20.156176   21.684106 H          1 MOL1         0.0960
      10    H7      18.953625   19.774944   21.512662 H          1 MOL1         0.0960
      11    C4      20.062481   18.334331   22.707151 C.3        1 MOL1        -0.1409
      12    H8      21.067770   17.890930   22.724541 H          1 MOL1         0.0960
      13    H9      19.353638   17.509142   22.551933 H          1 MOL1         0.0960
      14    C5      19.774803   19.014235   24.064872 C.3        1 MOL1        -0.1409
      15    H10     20.482642   19.840815   24.212421 H          1 MOL1         0.0960
      16    H11     18.768302   19.455098   24.048376 H          1 MOL1         0.0960
      17    C6      19.880080   18.015076   25.241275 C.3        1 MOL1        -0.1450
      18    H12     20.892248   17.591403   25.286104 H          1 MOL1         0.0960
      19    H13     19.195874   17.174075   25.066460 H          1 MOL1         0.0960
      20    C7      19.529509   18.654435   26.598733 C.3        1 MOL1         0.0172
      21    H14     18.524421   19.082609   26.555380 H          1 MOL1         0.0934
      22    H15     19.538967   17.884757   27.375312 H          1 MOL1         0.0934
      23    N1      20.489129   19.748416   27.024255 N.4        1 MOL1        -0.5956
      24    H16     20.235504   20.143698   27.936270 H          1 MOL1         0.3624
      25    H17     20.502127   20.523822   26.354544 H          1 MOL1         0.3624
      26    H18     21.450398   19.401395   27.105354 H          1 MOL1         0.3624
@<TRIPOS>BOND
    1     1     2    1
    2     1     3    1
    3     1     4    1
    4     1     5    1
    5     5     6    1
    6     5     7    1
    7     5     8    1
    8     8     9    1
    9     8    10    1
   10     8    11    1
   11    11    12    1
   12    11    13    1
   13    11    14    1
   14    14    15    1
   15    14    16    1
   16    14    17    1
   17    17    18    1
   18    17    19    1
   19    17    20    1
   20    20    21    1
   21    20    22    1
   22    20    23    1
   23    23    24    1
   24    23    25    1
   25    23    26    1
@<TRIPOS>SUBSTRUCTURE
       1 MOL1            1 RESIDUE      1      MOL     
@<SCITEGIC>MOL_PROPERTY
VM2 Rank
SciTegic.value.IntegerValue
2

@<SCITEGIC>MOL_PROPERTY
Conf_Id
SciTegic.value.IntegerValue
307

@<SCITEGIC>MOL_PROPERTY
Probability
SciTegic.value.DoubleValue
5.09

@<SCITEGIC>MOL_PROPERTY
Sum Probability
SciTegic.value.DoubleValue
12.80

@<SCITEGIC>MOL_PROPERTY
Delta G
SciTegic.value.DoubleValue
0.248

@<SCITEGIC>MOL_PROPERTY
G
SciTegic.value.DoubleValue
48.509

@<SCITEGIC>MOL_PROPERTY
E
SciTegic.value.DoubleValue
16.054

@<SCITEGIC>MOL_PROPERTY
-TS
SciTegic.value.DoubleValue
32.455

@<SCITEGIC>MOL_PROPERTY
U+W
SciTegic.value.DoubleValue
-5.408

@<SCITEGIC>MOL_PROPERTY
U
SciTegic.value.DoubleValue
47.845

@<SCITEGIC>MOL_PROPERTY
W
SciTegic.value.DoubleValue
-53.253

@<SCITEGIC>MOL_PROPERTY
W(PB)
SciTegic.value.DoubleValue
-55.604

@<SCITEGIC>MOL_PROPERTY
W(SA)
SciTegic.value.DoubleValue
2.351

@<SCITEGIC>MOL_PROPERTY
Valence
SciTegic.value.DoubleValue
2.258

@<SCITEGIC>MOL_PROPERTY
Coulomb
SciTegic.value.DoubleValue
44.894

@<SCITEGIC>MOL_PROPERTY
VdW
SciTegic.value.DoubleValue
0.694

@<SCITEGIC>MOL_PROPERTY
VdW6
SciTegic.value.DoubleValue
-6.285

@<SCITEGIC>MOL_PROPERTY
VdW12
SciTegic.value.DoubleValue
6.979

@<SCITEGIC>MOL_PROPERTY
Bond
SciTegic.value.DoubleValue
0.149

@<SCITEGIC>MOL_PROPERTY
Angle
SciTegic.value.DoubleValue
0.434

@<SCITEGIC>MOL_PROPERTY
Pdih
SciTegic.value.DoubleValue
1.675

@<SCITEGIC>MOL_PROPERTY
Idih
SciTegic.value.DoubleValue
0.000

@<SCITEGIC>MOL_PROPERTY
Tether
SciTegic.value.DoubleValue
0.000

@<TRIPOS>MOLECULE
guest-s14_vm2.mol2 : vm2 ligand conformer 3
          26          25           1
SMALL
USER_CHARGES
 
@<TRIPOS>ATOM
       1    C1      19.492571   19.222198   18.979142 C.3        1 MOL1        -0.2400
       2    H1      18.451205   18.879043   19.034283 H          1 MOL1         0.0971
       3    H2      19.490066   20.319739   18.953850 H          1 MOL1         0.0971
       4    H3      19.915564   18.864282   18.031501 H          1 MOL1         0.0971
       5    C2      20.313943   18.696723   20.175534 C.3        1 MOL1        -0.1385
       6    H4      21.357190   19.027517   20.074843 H          1 MOL1         0.0960
       7    H5      20.326373   17.597935   20.154665 H          1 MOL1         0.0960
       8    C3      19.739259   19.186352   21.523237 C.3        1 MOL1        -0.1409
       9    H6      19.726798   20.285012   21.538463 H          1 MOL1         0.0960
      10    H7      18.695773   18.855364   21.618127 H          1 MOL1         0.0960
      11    C4      20.559223   18.662075   22.723745 C.3        1 MOL1        -0.1409
      12    H8      21.602671   18.992779   22.627117 H          1 MOL1         0.0960
      13    H9      20.571120   17.563384   22.707920 H          1 MOL1         0.0960
      14    C5      19.984402   19.152542   24.071879 C.3        1 MOL1        -0.1409
      15    H10     19.975264   20.251318   24.088744 H          1 MOL1         0.0960
      16    H11     18.940433   18.823531   24.160884 H          1 MOL1         0.0960
      17    C6      20.806153   18.625953   25.272197 C.3        1 MOL1        -0.1450
      18    H12     21.855373   18.928346   25.155261 H          1 MOL1         0.0960
      19    H13     20.795897   17.527875   25.282854 H          1 MOL1         0.0960
      20    C7      20.293400   19.158271   26.624267 C.3        1 MOL1         0.0172
      21    H14     20.960595   18.822400   27.422772 H          1 MOL1         0.0934
      22    H15     20.296670   20.251574   26.614624 H          1 MOL1         0.0934
      23    N1      18.892049   18.694885   26.970999 N.4        1 MOL1        -0.5956
      24    H16     18.586183   19.055580   27.881323 H          1 MOL1         0.3624
      25    H17     18.829679   17.672654   27.017831 H          1 MOL1         0.3624
      26    H18     18.205789   19.009149   26.278018 H          1 MOL1         0.3624
@<TRIPOS>BOND
    1     1     2    1
    2     1     3    1
    3     1     4    1
    4     1     5    1
    5     5     6    1
    6     5     7    1
    7     5     8    1
    8     8     9    1
    9     8    10    1
   10     8    11    1
   11    11    12    1
   12    11    13    1
   13    11    14    1
   14    14    15    1
   15    14    16    1
   16    14    17    1
   17    17    18    1
   18    17    19    1
   19    17    20    1
   20    20    21    1
   21    20    22    1
   22    20    23    1
   23    23    24    1
   24    23    25    1
   25    23    26    1
@<TRIPOS>SUBSTRUCTURE
       1 MOL1            1 RESIDUE      1      MOL     
@<SCITEGIC>MOL_PROPERTY
VM2 Rank
SciTegic.value.IntegerValue
3

@<SCITEGIC>MOL_PROPERTY
Conf_Id
SciTegic.value.IntegerValue
1283

@<SCITEGIC>MOL_PROPERTY
Probability
SciTegic.value.DoubleValue
4.96

@<SCITEGIC>MOL_PROPERTY
Sum Probability
SciTegic.value.DoubleValue
17.75

@<SCITEGIC>MOL_PROPERTY
Delta G
SciTegic.value.DoubleValue
0.264

@<SCITEGIC>MOL_PROPERTY
G
SciTegic.value.DoubleValue
48.525

@<SCITEGIC>MOL_PROPERTY
E
SciTegic.value.DoubleValue
16.069

@<SCITEGIC>MOL_PROPERTY
-TS
SciTegic.value.DoubleValue
32.456

@<SCITEGIC>MOL_PROPERTY
U+W
SciTegic.value.DoubleValue
-5.393

@<SCITEGIC>MOL_PROPERTY
U
SciTegic.value.DoubleValue
47.845

@<SCITEGIC>MOL_PROPERTY
W
SciTegic.value.DoubleValue
-53.237

@<SCITEGIC>MOL_PROPERTY
W(PB)
SciTegic.value.DoubleValue
-55.586

@<SCITEGIC>MOL_PROPERTY
W(SA)
SciTegic.value.DoubleValue
2.349

@<SCITEGIC>MOL_PROPERTY
Valence
SciTegic.value.DoubleValue
2.258

@<SCITEGIC>MOL_PROPERTY
Coulomb
SciTegic.value.DoubleValue
44.893

@<SCITEGIC>MOL_PROPERTY
VdW
SciTegic.value.DoubleValue
0.694

@<SCITEGIC>MOL_PROPERTY
VdW6
SciTegic.value.DoubleValue
-6.285

@<SCITEGIC>MOL_PROPERTY
VdW12
SciTegic.value.DoubleValue
6.978

@<SCITEGIC>MOL_PROPERTY
Bond
SciTegic.value.DoubleValue
0.149

@<SCITEGIC>MOL_PROPERTY
Angle
SciTegic.value.DoubleValue
0.434

@<SCITEGIC>MOL_PROPERTY
Pdih
SciTegic.value.DoubleValue
1.675

@<SCITEGIC>MOL_PROPERTY
Idih
SciTegic.value.DoubleValue
0.000

@<SCITEGIC>MOL_PROPERTY
Tether
SciTegic.value.DoubleValue
0.000

@<TRIPOS>MOLECULE
guest-s14_vm2.mol2 : vm2 ligand conformer 4
          26          25           1
SMALL
USER_CHARGES
 
@<TRIPOS>ATOM
       1    C1      19.768656   18.853402   18.989679 C.3        1 MOL1        -0.2400
       2    H1      20.547243   19.575226   18.710366 H          1 MOL1         0.0971
       3    H2      19.777871   18.044039   18.248131 H          1 MOL1         0.0971
       4    H3      18.795757   19.357998   18.925713 H          1 MOL1         0.0971
       5    C2      20.012205   18.295799   20.408084 C.3        1 MOL1        -0.1385
       6    H4      20.976067   17.768226   20.431836 H          1 MOL1         0.0960
       7    H5      19.238080   17.552616   20.645419 H          1 MOL1         0.0960
       8    C3      20.004174   19.415622   21.472179 C.3        1 MOL1        -0.1409
       9    H6      20.777646   20.157184   21.228750 H          1 MOL1         0.0960
      10    H7      19.039671   19.941317   21.443358 H          1 MOL1         0.0960
      11    C4      20.248081   18.861274   22.894003 C.3        1 MOL1        -0.1409
      12    H8      21.213978   18.338139   22.922078 H          1 MOL1         0.0960
      13    H9      19.475451   18.116673   23.127839 H          1 MOL1         0.0960
      14    C5      20.238216   19.985240   23.957781 C.3        1 MOL1        -0.1409
      15    H10     20.981458   20.747241   23.685056 H          1 MOL1         0.0960
      16    H11     19.261672   20.489218   23.955848 H          1 MOL1         0.0960
      17    C6      20.552107   19.474611   25.383726 C.3        1 MOL1        -0.1450
      18    H12     20.614648   20.334208   26.064262 H          1 MOL1         0.0960
      19    H13     21.538873   18.992757   25.394329 H          1 MOL1         0.0960
      20    C7      19.490055   18.491645   25.911157 C.3        1 MOL1         0.0172
      21    H14     18.507728   18.971582   25.901808 H          1 MOL1         0.0934
      22    H15     19.448938   17.609863   25.266609 H          1 MOL1         0.0934
      23    N1      19.767507   18.021407   27.324390 N.4        1 MOL1        -0.5956
      24    H16     19.049456   17.368404   27.656639 H          1 MOL1         0.3624
      25    H17     19.791386   18.801761   27.988995 H          1 MOL1         0.3624
      26    H18     20.668022   17.536476   27.395950 H          1 MOL1         0.3624
@<TRIPOS>BOND
    1     1     2    1
    2     1     3    1
    3     1     4    1
    4     1     5    1
    5     5     6    1
    6     5     7    1
    7     5     8    1
    8     8     9    1
    9     8    10    1
   10     8    11    1
   11    11    12    1
   12    11    13    1
   13    11    14    1
   14    14    15    1
   15    14    16    1
   16    14    17    1
   17    17    18    1
   18    17    19    1
   19    17    20    1
   20    20    21    1
   21    20    22    1
   22    20    23    1
   23    23    24    1
   24    23    25    1
   25    23    26    1
@<TRIPOS>SUBSTRUCTURE
       1 MOL1            1 RESIDUE      1      MOL     
@<SCITEGIC>MOL_PROPERTY
VM2 Rank
SciTegic.value.IntegerValue
4

@<SCITEGIC>MOL_PROPERTY
Conf_Id
SciTegic.value.IntegerValue
1284

@<SCITEGIC>MOL_PROPERTY
Probability
SciTegic.value.DoubleValue
3.52

@<SCITEGIC>MOL_PROPERTY
Sum Probability
SciTegic.value.DoubleValue
21.27

@<SCITEGIC>MOL_PROPERTY
Delta G
SciTegic.value.DoubleValue
0.468

@<SCITEGIC>MOL_PROPERTY
G
SciTegic.value.DoubleValue
48.730

@<SCITEGIC>MOL_PROPERTY
E
SciTegic.value.DoubleValue
16.279

@<SCITEGIC>MOL_PROPERTY
-TS
SciTegic.value.DoubleValue
32.451

@<SCITEGIC>MOL_PROPERTY
U+W
SciTegic.value.DoubleValue
-5.183

@<SCITEGIC>MOL_PROPERTY
U
SciTegic.value.DoubleValue
48.002

@<SCITEGIC>MOL_PROPERTY
W
SciTegic.value.DoubleValue
-53.185

@<SCITEGIC>MOL_PROPERTY
W(PB)
SciTegic.value.DoubleValue
-55.535

@<SCITEGIC>MOL_PROPERTY
W(SA)
SciTegic.value.DoubleValue
2.350

@<SCITEGIC>MOL_PROPERTY
Valence
SciTegic.value.DoubleValue
2.459

@<SCITEGIC>MOL_PROPERTY
Coulomb
SciTegic.value.DoubleValue
44.900

@<SCITEGIC>MOL_PROPERTY
VdW
SciTegic.value.DoubleValue
0.643

@<SCITEGIC>MOL_PROPERTY
VdW6
SciTegic.value.DoubleValue
-6.362

@<SCITEGIC>MOL_PROPERTY
VdW12
SciTegic.value.DoubleValue
7.005

@<SCITEGIC>MOL_PROPERTY
Bond
SciTegic.value.DoubleValue
0.151

@<SCITEGIC>MOL_PROPERTY
Angle
SciTegic.value.DoubleValue
0.519

@<SCITEGIC>MOL_PROPERTY
Pdih
SciTegic.value.DoubleValue
1.789

@<SCITEGIC>MOL_PROPERTY
Idih
SciTegic.value.DoubleValue
0.000

@<SCITEGIC>MOL_PROPERTY
Tether
SciTegic.value.DoubleValue
0.000

@<TRIPOS>MOLECULE
guest-s14_vm2.mol2 : vm2 ligand conformer 5
          26          25           1
SMALL
USER_CHARGES
 
@<TRIPOS>ATOM
       1    C1      20.370955   19.250952   19.009863 C.3        1 MOL1        -0.2400
       2    H1      21.145149   18.946067   18.293822 H          1 MOL1         0.0971
       3    H2      19.415070   18.829431   18.672446 H          1 MOL1         0.0971
       4    H3      20.292929   20.345490   18.976084 H          1 MOL1         0.0971
       5    C2      20.721232   18.763364   20.431719 C.3        1 MOL1        -0.1385
       6    H4      21.696935   19.173662   20.727656 H          1 MOL1         0.0960
       7    H5      20.825782   17.669303   20.426477 H          1 MOL1         0.0960
       8    C3      19.646450   19.179697   21.460253 C.3        1 MOL1        -0.1409
       9    H6      19.544036   20.273754   21.460434 H          1 MOL1         0.0960
      10    H7      18.672795   18.769457   21.158377 H          1 MOL1         0.0960
      11    C4      19.993533   18.693124   22.885440 C.3        1 MOL1        -0.1409
      12    H8      20.970077   19.101729   23.177792 H          1 MOL1         0.0960
      13    H9      20.093129   17.598822   22.884386 H          1 MOL1         0.0960
      14    C5      18.915650   19.112761   23.913591 C.3        1 MOL1        -0.1409
      15    H10     18.836360   20.208465   23.941579 H          1 MOL1         0.0960
      16    H11     17.936548   18.738898   23.583411 H          1 MOL1         0.0960
      17    C6      19.195138   18.579473   25.338398 C.3        1 MOL1        -0.1450
      18    H12     19.249924   17.482850   25.317906 H          1 MOL1         0.0960
      19    H13     18.349334   18.839921   25.988577 H          1 MOL1         0.0960
      20    C7      20.490397   19.151516   25.944562 C.3        1 MOL1         0.0172
      21    H14     21.346504   18.861501   25.330035 H          1 MOL1         0.0934
      22    H15     20.435585   20.243270   25.966095 H          1 MOL1         0.0934
      23    N1      20.747645   18.668113   27.357174 N.4        1 MOL1        -0.5956
      24    H16     19.990522   18.933350   27.995638 H          1 MOL1         0.3624
      25    H17     21.613846   19.060208   27.742346 H          1 MOL1         0.3624
      26    H18     20.836297   17.647639   27.401707 H          1 MOL1         0.3624
@<TRIPOS>BOND
    1     1     2    1
    2     1     3    1
    3     1     4    1
    4     1     5    1
    5     5     6    1
    6     5     7    1
    7     5     8    1
    8     8     9    1
    9     8    10    1
   10     8    11    1
   11    11    12    1
   12    11    13    1
   13    11    14    1
   14    14    15    1
   15    14    16    1
   16    14    17    1
   17    17    18    1
   18    17    19    1
   19    17    20    1
   20    20    21    1
   21    20    22    1
   22    20    23    1
   23    23    24    1
   24    23    25    1
   25    23    26    1
@<TRIPOS>SUBSTRUCTURE
       1 MOL1            1 RESIDUE      1      MOL     
@<SCITEGIC>MOL_PROPERTY
VM2 Rank
SciTegic.value.IntegerValue
5

@<SCITEGIC>MOL_PROPERTY
Conf_Id
SciTegic.value.IntegerValue
1194

@<SCITEGIC>MOL_PROPERTY
Probability
SciTegic.value.DoubleValue
3.49

@<SCITEGIC>MOL_PROPERTY
Sum Probability
SciTegic.value.DoubleValue
24.75

@<SCITEGIC>MOL_PROPERTY
Delta G
SciTegic.value.DoubleValue
0.473

@<SCITEGIC>MOL_PROPERTY
G
SciTegic.value.DoubleValue
48.735

@<SCITEGIC>MOL_PROPERTY
E
SciTegic.value.DoubleValue
16.284

@<SCITEGIC>MOL_PROPERTY
-TS
SciTegic.value.DoubleValue
32.451

@<SCITEGIC>MOL_PROPERTY
U+W
SciTegic.value.DoubleValue
-5.178

@<SCITEGIC>MOL_PROPERTY
U
SciTegic.value.DoubleValue
48.002

@<SCITEGIC>MOL_PROPERTY
W
SciTegic.value.DoubleValue
-53.180

@<SCITEGIC>MOL_PROPERTY
W(PB)
SciTegic.value.DoubleValue
-55.521

@<SCITEGIC>MOL_PROPERTY
W(SA)
SciTegic.value.DoubleValue
2.341

@<SCITEGIC>MOL_PROPERTY
Valence
SciTegic.value.DoubleValue
2.459

@<SCITEGIC>MOL_PROPERTY
Coulomb
SciTegic.value.DoubleValue
44.900

@<SCITEGIC>MOL_PROPERTY
VdW
SciTegic.value.DoubleValue
0.642

@<SCITEGIC>MOL_PROPERTY
VdW6
SciTegic.value.DoubleValue
-6.362

@<SCITEGIC>MOL_PROPERTY
VdW12
SciTegic.value.DoubleValue
7.005

@<SCITEGIC>MOL_PROPERTY
Bond
SciTegic.value.DoubleValue
0.151

@<SCITEGIC>MOL_PROPERTY
Angle
SciTegic.value.DoubleValue
0.519

@<SCITEGIC>MOL_PROPERTY
Pdih
SciTegic.value.DoubleValue
1.789

@<SCITEGIC>MOL_PROPERTY
Idih
SciTegic.value.DoubleValue
0.000

@<SCITEGIC>MOL_PROPERTY
Tether
SciTegic.value.DoubleValue
0.000

@<TRIPOS>MOLECULE
guest-s14_vm2.mol2 : vm2 ligand conformer 6
          26          25           1
SMALL
USER_CHARGES
 
@<TRIPOS>ATOM
       1    C1      19.444895   18.162110   19.524282 C.3        1 MOL1        -0.2400
       2    H1      19.410730   17.284164   20.181155 H          1 MOL1         0.0971
       3    H2      18.448918   18.623572   19.513843 H          1 MOL1         0.0971
       4    H3      19.660315   17.805697   18.508653 H          1 MOL1         0.0971
       5    C2      20.520917   19.172665   19.982248 C.3        1 MOL1        -0.1385
       6    H4      20.601163   19.969551   19.229696 H          1 MOL1         0.0960
       7    H5      21.502327   18.679060   20.012997 H          1 MOL1         0.0960
       8    C3      20.215416   19.816421   21.356277 C.3        1 MOL1        -0.1409
       9    H6      20.965081   20.595975   21.550259 H          1 MOL1         0.0960
      10    H7      19.243076   20.326376   21.314248 H          1 MOL1         0.0960
      11    C4      20.224120   18.804455   22.527093 C.3        1 MOL1        -0.1409
      12    H8      21.178365   18.259837   22.533910 H          1 MOL1         0.0960
      13    H9      19.431637   18.058541   22.382130 H          1 MOL1         0.0960
      14    C5      20.018480   19.502988   23.890361 C.3        1 MOL1        -0.1409
      15    H10     20.811759   20.247482   24.045857 H          1 MOL1         0.0960
      16    H11     19.065725   20.050690   23.882315 H          1 MOL1         0.0960
      17    C6      20.022938   18.494977   25.060682 C.3        1 MOL1        -0.1450
      18    H12     20.975634   17.948834   25.074824 H          1 MOL1         0.0960
      19    H13     19.227624   17.752290   24.912385 H          1 MOL1         0.0960
      20    C7      19.817866   19.200960   26.412555 C.3        1 MOL1         0.0172
      21    H14     20.616842   19.930122   26.572043 H          1 MOL1         0.0934
      22    H15     18.862489   19.732671   26.409041 H          1 MOL1         0.0934
      23    N1      19.816369   18.244424   27.587501 N.4        1 MOL1        -0.5956
      24    H16     19.678502   18.734983   28.477898 H          1 MOL1         0.3624
      25    H17     20.700640   17.731075   27.663601 H          1 MOL1         0.3624
      26    H18     19.068223   17.547409   27.512022 H          1 MOL1         0.3624
@<TRIPOS>BOND
    1     1     2    1
    2     1     3    1
    3     1     4    1
    4     1     5    1
    5     5     6    1
    6     5     7    1
    7     5     8    1
    8     8     9    1
    9     8    10    1
   10     8    11    1
   11    11    12    1
   12    11    13    1
   13    11    14    1
   14    14    15    1
   15    14    16    1
   16    14    17    1
   17    17    18    1
   18    17    19    1
   19    17    20    1
   20    20    21    1
   21    20    22    1
   22    20    23    1
   23    23    24    1
   24    23    25    1
   25    23    26    1
@<TRIPOS>SUBSTRUCTURE
       1 MOL1            1 RESIDUE      1      MOL     
@<SCITEGIC>MOL_PROPERTY
VM2 Rank
SciTegic.value.IntegerValue
6

@<SCITEGIC>MOL_PROPERTY
Conf_Id
SciTegic.value.IntegerValue
285

@<SCITEGIC>MOL_PROPERTY
Probability
SciTegic.value.DoubleValue
2.86

@<SCITEGIC>MOL_PROPERTY
Sum Probability
SciTegic.value.DoubleValue
27.61

@<SCITEGIC>MOL_PROPERTY
Delta G
SciTegic.value.DoubleValue
0.591

@<SCITEGIC>MOL_PROPERTY
G
SciTegic.value.DoubleValue
48.853

@<SCITEGIC>MOL_PROPERTY
E
SciTegic.value.DoubleValue
16.390

@<SCITEGIC>MOL_PROPERTY
-TS
SciTegic.value.DoubleValue
32.463

@<SCITEGIC>MOL_PROPERTY
U+W
SciTegic.value.DoubleValue
-5.072

@<SCITEGIC>MOL_PROPERTY
U
SciTegic.value.DoubleValue
47.845

@<SCITEGIC>MOL_PROPERTY
W
SciTegic.value.DoubleValue
-52.917

@<SCITEGIC>MOL_PROPERTY
W(PB)
SciTegic.value.DoubleValue
-55.279

@<SCITEGIC>MOL_PROPERTY
W(SA)
SciTegic.value.DoubleValue
2.362

@<SCITEGIC>MOL_PROPERTY
Valence
SciTegic.value.DoubleValue
2.661

@<SCITEGIC>MOL_PROPERTY
Coulomb
SciTegic.value.DoubleValue
44.462

@<SCITEGIC>MOL_PROPERTY
VdW
SciTegic.value.DoubleValue
0.723

@<SCITEGIC>MOL_PROPERTY
VdW6
SciTegic.value.DoubleValue
-6.379

@<SCITEGIC>MOL_PROPERTY
VdW12
SciTegic.value.DoubleValue
7.102

@<SCITEGIC>MOL_PROPERTY
Bond
SciTegic.value.DoubleValue
0.164

@<SCITEGIC>MOL_PROPERTY
Angle
SciTegic.value.DoubleValue
0.634

@<SCITEGIC>MOL_PROPERTY
Pdih
SciTegic.value.DoubleValue
1.863

@<SCITEGIC>MOL_PROPERTY
Idih
SciTegic.value.DoubleValue
0.000

@<SCITEGIC>MOL_PROPERTY
Tether
SciTegic.value.DoubleValue
0.000

@<TRIPOS>MOLECULE
guest-s14_vm2.mol2 : vm2 ligand conformer 7
          26          25           1
SMALL
USER_CHARGES
 
@<TRIPOS>ATOM
       1    C1      21.108043   19.258770   19.579783 C.3        1 MOL1        -0.2400
       2    H1      21.398010   18.951419   18.566672 H          1 MOL1         0.0971
       3    H2      21.075931   20.355822   19.601429 H          1 MOL1         0.0971
       4    H3      21.897252   18.923834   20.264185 H          1 MOL1         0.0971
       5    C2      19.735930   18.655016   19.956037 C.3        1 MOL1        -0.1385
       6    H4      19.802329   17.558044   19.956271 H          1 MOL1         0.0960
       7    H5      19.007513   18.918635   19.176477 H          1 MOL1         0.0960
       8    C3      19.200780   19.147380   21.322384 C.3        1 MOL1        -0.1409
       9    H6      19.116329   20.242816   21.309979 H          1 MOL1         0.0960
      10    H7      18.181302   18.760349   21.457293 H          1 MOL1         0.0960
      11    C4      20.072326   18.704407   22.522027 C.3        1 MOL1        -0.1409
      12    H8      21.075427   19.142585   22.437059 H          1 MOL1         0.0960
      13    H9      20.197415   17.613007   22.501136 H          1 MOL1         0.0960
      14    C5      19.448075   19.126878   23.871311 C.3        1 MOL1        -0.1409
      15    H10     19.319599   20.218161   23.890817 H          1 MOL1         0.0960
      16    H11     18.445483   18.687065   23.966799 H          1 MOL1         0.0960
      17    C6      20.317684   18.689385   25.070533 C.3        1 MOL1        -0.1450
      18    H12     21.319063   19.131602   24.982303 H          1 MOL1         0.0960
      19    H13     20.444511   17.598590   25.057029 H          1 MOL1         0.0960
      20    C7      19.686856   19.114528   26.408195 C.3        1 MOL1         0.0172
      21    H14     19.573845   20.201770   26.432888 H          1 MOL1         0.0934
      22    H15     18.695941   18.663269   26.507833 H          1 MOL1         0.0934
      23    N1      20.511306   18.702636   27.610729 N.4        1 MOL1        -0.5956
      24    H16     20.073431   18.995303   28.491112 H          1 MOL1         0.3624
      25    H17     21.448827   19.117294   27.591614 H          1 MOL1         0.3624
      26    H18     20.631993   17.685712   27.661259 H          1 MOL1         0.3624
@<TRIPOS>BOND
    1     1     2    1
    2     1     3    1
    3     1     4    1
    4     1     5    1
    5     5     6    1
    6     5     7    1
    7     5     8    1
    8     8     9    1
    9     8    10    1
   10     8    11    1
   11    11    12    1
   12    11    13    1
   13    11    14    1
   14    14    15    1
   15    14    16    1
   16    14    17    1
   17    17    18    1
   18    17    19    1
   19    17    20    1
   20    20    21    1
   21    20    22    1
   22    20    23    1
   23    23    24    1
   24    23    25    1
   25    23    26    1
@<TRIPOS>SUBSTRUCTURE
       1 MOL1            1 RESIDUE      1      MOL     
@<SCITEGIC>MOL_PROPERTY
VM2 Rank
SciTegic.value.IntegerValue
7

@<SCITEGIC>MOL_PROPERTY
Conf_Id
SciTegic.value.IntegerValue
1255

@<SCITEGIC>MOL_PROPERTY
Probability
SciTegic.value.DoubleValue
2.69

@<SCITEGIC>MOL_PROPERTY
Sum Probability
SciTegic.value.DoubleValue
30.30

@<SCITEGIC>MOL_PROPERTY
Delta G
SciTegic.value.DoubleValue
0.628

@<SCITEGIC>MOL_PROPERTY
G
SciTegic.value.DoubleValue
48.890

@<SCITEGIC>MOL_PROPERTY
E
SciTegic.value.DoubleValue
16.427

@<SCITEGIC>MOL_PROPERTY
-TS
SciTegic.value.DoubleValue
32.463

@<SCITEGIC>MOL_PROPERTY
U+W
SciTegic.value.DoubleValue
-5.035

@<SCITEGIC>MOL_PROPERTY
U
SciTegic.value.DoubleValue
47.845

@<SCITEGIC>MOL_PROPERTY
W
SciTegic.value.DoubleValue
-52.880

@<SCITEGIC>MOL_PROPERTY
W(PB)
SciTegic.value.DoubleValue
-55.232

@<SCITEGIC>MOL_PROPERTY
W(SA)
SciTegic.value.DoubleValue
2.352

@<SCITEGIC>MOL_PROPERTY
Valence
SciTegic.value.DoubleValue
2.661

@<SCITEGIC>MOL_PROPERTY
Coulomb
SciTegic.value.DoubleValue
44.462

@<SCITEGIC>MOL_PROPERTY
VdW
SciTegic.value.DoubleValue
0.723

@<SCITEGIC>MOL_PROPERTY
VdW6
SciTegic.value.DoubleValue
-6.379

@<SCITEGIC>MOL_PROPERTY
VdW12
SciTegic.value.DoubleValue
7.102

@<SCITEGIC>MOL_PROPERTY
Bond
SciTegic.value.DoubleValue
0.164

@<SCITEGIC>MOL_PROPERTY
Angle
SciTegic.value.DoubleValue
0.634

@<SCITEGIC>MOL_PROPERTY
Pdih
SciTegic.value.DoubleValue
1.863

@<SCITEGIC>MOL_PROPERTY
Idih
SciTegic.value.DoubleValue
0.000

@<SCITEGIC>MOL_PROPERTY
Tether
SciTegic.value.DoubleValue
0.000

@<TRIPOS>MOLECULE
guest-s14_vm2.mol2 : vm2 ligand conformer 8
          26          25           1
SMALL
USER_CHARGES
 
@<TRIPOS>ATOM
       1    C1      20.186015   19.782865   19.189267 C.3        1 MOL1        -0.2400
       2    H1      20.215598   18.901539   18.535342 H          1 MOL1         0.0971
       3    H2      19.186197   20.230225   19.115261 H          1 MOL1         0.0971
       4    H3      20.910844   20.511987   18.804502 H          1 MOL1         0.0971
       5    C2      20.516922   19.403361   20.648296 C.3        1 MOL1        -0.1385
       6    H4      20.517905   20.314298   21.261354 H          1 MOL1         0.0960
       7    H5      21.532645   18.986388   20.694630 H          1 MOL1         0.0960
       8    C3      19.505190   18.378951   21.214242 C.3        1 MOL1        -0.1409
       9    H6      18.497242   18.816318   21.216777 H          1 MOL1         0.0960
      10    H7      19.462507   17.511108   20.541650 H          1 MOL1         0.0960
      11    C4      19.858059   17.879506   22.636900 C.3        1 MOL1        -0.1409
      12    H8      20.859880   17.428236   22.630006 H          1 MOL1         0.0960
      13    H9      19.159483   17.075010   22.905542 H          1 MOL1         0.0960
      14    C5      19.790602   18.986687   23.716293 C.3        1 MOL1        -0.1409
      15    H10     20.537369   19.763374   23.505079 H          1 MOL1         0.0960
      16    H11     18.805601   19.472757   23.683407 H          1 MOL1         0.0960
      17    C6      20.038438   18.422421   25.132646 C.3        1 MOL1        -0.1450
      18    H12     21.022667   17.936603   25.169960 H          1 MOL1         0.0960
      19    H13     19.289663   17.652130   25.360837 H          1 MOL1         0.0960
      20    C7      19.973638   19.529827   26.199203 C.3        1 MOL1         0.0172
      21    H14     20.728867   20.291136   25.985873 H          1 MOL1         0.0934
      22    H15     18.989473   20.005625   26.176569 H          1 MOL1         0.0934
      23    N1      20.212134   19.015382   27.604154 N.4        1 MOL1        -0.5956
      24    H16     21.134965   18.578963   27.699907 H          1 MOL1         0.3624
      25    H17     19.516500   18.313465   27.877393 H          1 MOL1         0.3624
      26    H18     20.164720   19.768748   28.298881 H          1 MOL1         0.3624
@<TRIPOS>BOND
    1     1     2    1
    2     1     3    1
    3     1     4    1
    4     1     5    1
    5     5     6    1
    6     5     7    1
    7     5     8    1
    8     8     9    1
    9     8    10    1
   10     8    11    1
   11    11    12    1
   12    11    13    1
   13    11    14    1
   14    14    15    1
   15    14    16    1
   16    14    17    1
   17    17    18    1
   18    17    19    1
   19    17    20    1
   20    20    21    1
   21    20    22    1
   22    20    23    1
   23    23    24    1
   24    23    25    1
   25    23    26    1
@<TRIPOS>SUBSTRUCTURE
       1 MOL1            1 RESIDUE      1      MOL     
@<SCITEGIC>MOL_PROPERTY
VM2 Rank
SciTegic.value.IntegerValue
8

@<SCITEGIC>MOL_PROPERTY
Conf_Id
SciTegic.value.IntegerValue
487

@<SCITEGIC>MOL_PROPERTY
Probability
SciTegic.value.DoubleValue
2.54

@<SCITEGIC>MOL_PROPERTY
Sum Probability
SciTegic.value.DoubleValue
32.84

@<SCITEGIC>MOL_PROPERTY
Delta G
SciTegic.value.DoubleValue
0.663

@<SCITEGIC>MOL_PROPERTY
G
SciTegic.value.DoubleValue
48.924

@<SCITEGIC>MOL_PROPERTY
E
SciTegic.value.DoubleValue
16.474

@<SCITEGIC>MOL_PROPERTY
-TS
SciTegic.value.DoubleValue
32.451

@<SCITEGIC>MOL_PROPERTY
U+W
SciTegic.value.DoubleValue
-4.988

@<SCITEGIC>MOL_PROPERTY
U
SciTegic.value.DoubleValue
48.035

@<SCITEGIC>MOL_PROPERTY
W
SciTegic.value.DoubleValue
-53.023

@<SCITEGIC>MOL_PROPERTY
W(PB)
SciTegic.value.DoubleValue
-55.378

@<SCITEGIC>MOL_PROPERTY
W(SA)
SciTegic.value.DoubleValue
2.355

@<SCITEGIC>MOL_PROPERTY
Valence
SciTegic.value.DoubleValue
2.701

@<SCITEGIC>MOL_PROPERTY
Coulomb
SciTegic.value.DoubleValue
44.622

@<SCITEGIC>MOL_PROPERTY
VdW
SciTegic.value.DoubleValue
0.712

@<SCITEGIC>MOL_PROPERTY
VdW6
SciTegic.value.DoubleValue
-6.418

@<SCITEGIC>MOL_PROPERTY
VdW12
SciTegic.value.DoubleValue
7.130

@<SCITEGIC>MOL_PROPERTY
Bond
SciTegic.value.DoubleValue
0.168

@<SCITEGIC>MOL_PROPERTY
Angle
SciTegic.value.DoubleValue
0.659

@<SCITEGIC>MOL_PROPERTY
Pdih
SciTegic.value.DoubleValue
1.875

@<SCITEGIC>MOL_PROPERTY
Idih
SciTegic.value.DoubleValue
0.000

@<SCITEGIC>MOL_PROPERTY
Tether
SciTegic.value.DoubleValue
0.000

@<TRIPOS>MOLECULE
guest-s14_vm2.mol2 : vm2 ligand conformer 9
          26          25           1
SMALL
USER_CHARGES
 
@<TRIPOS>ATOM
       1    C1      20.845159   19.869588   19.433553 C.3        1 MOL1        -0.2400
       2    H1      21.810187   20.173362   19.859776 H          1 MOL1         0.0971
       3    H2      21.019453   19.552467   18.397165 H          1 MOL1         0.0971
       4    H3      20.189120   20.749553   19.410885 H          1 MOL1         0.0971
       5    C2      20.211375   18.726173   20.254001 C.3        1 MOL1        -0.1385
       6    H4      20.874251   17.849822   20.230783 H          1 MOL1         0.0960
       7    H5      19.266050   18.421196   19.783622 H          1 MOL1         0.0960
       8    C3      19.954467   19.146694   21.718120 C.3        1 MOL1        -0.1409
       9    H6      20.904215   19.457215   22.172756 H          1 MOL1         0.0960
      10    H7      19.290021   20.021576   21.736092 H          1 MOL1         0.0960
      11    C4      19.322527   17.999408   22.542589 C.3        1 MOL1        -0.1409
      12    H8      20.009132   17.142058   22.571905 H          1 MOL1         0.0960
      13    H9      18.414879   17.649913   22.031280 H          1 MOL1         0.0960
      14    C5      18.943531   18.410053   23.986801 C.3        1 MOL1        -0.1409
      15    H10     18.243303   19.256455   23.957391 H          1 MOL1         0.0960
      16    H11     18.400354   17.577038   24.454522 H          1 MOL1         0.0960
      17    C6      20.162218   18.771849   24.867986 C.3        1 MOL1        -0.1450
      18    H12     20.672423   19.655182   24.463860 H          1 MOL1         0.0960
      19    H13     20.885402   17.945551   24.856323 H          1 MOL1         0.0960
      20    C7      19.738088   19.059182   26.319063 C.3        1 MOL1         0.0172
      21    H14     19.030052   19.892138   26.337496 H          1 MOL1         0.0934
      22    H15     19.244589   18.178795   26.739583 H          1 MOL1         0.0934
      23    N1      20.903637   19.416054   27.218887 N.4        1 MOL1        -0.5956
      24    H16     20.598998   19.603043   28.180490 H          1 MOL1         0.3624
      25    H17     21.395202   20.254838   26.893313 H          1 MOL1         0.3624
      26    H18     21.594897   18.660337   27.266693 H          1 MOL1         0.3624
@<TRIPOS>BOND
    1     1     2    1
    2     1     3    1
    3     1     4    1
    4     1     5    1
    5     5     6    1
    6     5     7    1
    7     5     8    1
    8     8     9    1
    9     8    10    1
   10     8    11    1
   11    11    12    1
   12    11    13    1
   13    11    14    1
   14    14    15    1
   15    14    16    1
   16    14    17    1
   17    17    18    1
   18    17    19    1
   19    17    20    1
   20    20    21    1
   21    20    22    1
   22    20    23    1
   23    23    24    1
   24    23    25    1
   25    23    26    1
@<TRIPOS>SUBSTRUCTURE
       1 MOL1            1 RESIDUE      1      MOL     
@<SCITEGIC>MOL_PROPERTY
VM2 Rank
SciTegic.value.IntegerValue
9

@<SCITEGIC>MOL_PROPERTY
Conf_Id
SciTegic.value.IntegerValue
611

@<SCITEGIC>MOL_PROPERTY
Probability
SciTegic.value.DoubleValue
2.53

@<SCITEGIC>MOL_PROPERTY
Sum Probability
SciTegic.value.DoubleValue
35.37

@<SCITEGIC>MOL_PROPERTY
Delta G
SciTegic.value.DoubleValue
0.664

@<SCITEGIC>MOL_PROPERTY
G
SciTegic.value.DoubleValue
48.926

@<SCITEGIC>MOL_PROPERTY
E
SciTegic.value.DoubleValue
16.473

@<SCITEGIC>MOL_PROPERTY
-TS
SciTegic.value.DoubleValue
32.453

@<SCITEGIC>MOL_PROPERTY
U+W
SciTegic.value.DoubleValue
-4.989

@<SCITEGIC>MOL_PROPERTY
U
SciTegic.value.DoubleValue
48.214

@<SCITEGIC>MOL_PROPERTY
W
SciTegic.value.DoubleValue
-53.203

@<SCITEGIC>MOL_PROPERTY
W(PB)
SciTegic.value.DoubleValue
-55.543

@<SCITEGIC>MOL_PROPERTY
W(SA)
SciTegic.value.DoubleValue
2.340

@<SCITEGIC>MOL_PROPERTY
Valence
SciTegic.value.DoubleValue
2.697

@<SCITEGIC>MOL_PROPERTY
Coulomb
SciTegic.value.DoubleValue
44.818

@<SCITEGIC>MOL_PROPERTY
VdW
SciTegic.value.DoubleValue
0.698

@<SCITEGIC>MOL_PROPERTY
VdW6
SciTegic.value.DoubleValue
-6.437

@<SCITEGIC>MOL_PROPERTY
VdW12
SciTegic.value.DoubleValue
7.136

@<SCITEGIC>MOL_PROPERTY
Bond
SciTegic.value.DoubleValue
0.168

@<SCITEGIC>MOL_PROPERTY
Angle
SciTegic.value.DoubleValue
0.657

@<SCITEGIC>MOL_PROPERTY
Pdih
SciTegic.value.DoubleValue
1.873

@<SCITEGIC>MOL_PROPERTY
Idih
SciTegic.value.DoubleValue
0.000

@<SCITEGIC>MOL_PROPERTY
Tether
SciTegic.value.DoubleValue
0.000

@<TRIPOS>MOLECULE
guest-s14_vm2.mol2 : vm2 ligand conformer 10
          26          25           1
SMALL
USER_CHARGES
 
@<TRIPOS>ATOM
       1    C1      19.343859   19.227165   19.161107 C.3        1 MOL1        -0.2400
       2    H1      20.172436   18.873255   18.533862 H          1 MOL1         0.0971
       3    H2      18.407712   18.860072   18.720756 H          1 MOL1         0.0971
       4    H3      19.328260   20.324125   19.120137 H          1 MOL1         0.0971
       5    C2      19.494882   18.728780   20.614067 C.3        1 MOL1        -0.1385
       6    H4      19.477581   17.630020   20.625744 H          1 MOL1         0.0960
       7    H5      18.629037   19.067555   21.198180 H          1 MOL1         0.0960
       8    C3      20.806405   19.237612   21.257737 C.3        1 MOL1        -0.1409
       9    H6      21.651779   18.955821   20.614863 H          1 MOL1         0.0960
      10    H7      20.799719   20.335752   21.293750 H          1 MOL1         0.0960
      11    C4      21.060618   18.673092   22.677107 C.3        1 MOL1        -0.1409
      12    H8      22.061226   18.989763   23.002518 H          1 MOL1         0.0960
      13    H9      21.082505   17.575235   22.637488 H          1 MOL1         0.0960
      14    C5      20.019753   19.138019   23.723976 C.3        1 MOL1        -0.1409
      15    H10     19.961296   20.235356   23.722141 H          1 MOL1         0.0960
      16    H11     19.023073   18.764524   23.454449 H          1 MOL1         0.0960
      17    C6      20.374908   18.644440   25.143879 C.3        1 MOL1        -0.1450
      18    H12     21.365780   19.021635   25.430199 H          1 MOL1         0.0960
      19    H13     20.433068   17.547767   25.150172 H          1 MOL1         0.0960
      20    C7      19.333549   19.107585   26.177880 C.3        1 MOL1         0.0172
      21    H14     19.284039   20.199808   26.186697 H          1 MOL1         0.0934
      22    H15     18.347660   18.720640   25.906285 H          1 MOL1         0.0934
      23    N1      19.647026   18.642307   27.585246 N.4        1 MOL1        -0.5956
      24    H16     18.941403   18.961484   28.258058 H          1 MOL1         0.3624
      25    H17     20.552227   18.995980   27.912016 H          1 MOL1         0.3624
      26    H18     19.680937   17.619683   27.651107 H          1 MOL1         0.3624
@<TRIPOS>BOND
    1     1     2    1
    2     1     3    1
    3     1     4    1
    4     1     5    1
    5     5     6    1
    6     5     7    1
    7     5     8    1
    8     8     9    1
    9     8    10    1
   10     8    11    1
   11    11    12    1
   12    11    13    1
   13    11    14    1
   14    14    15    1
   15    14    16    1
   16    14    17    1
   17    17    18    1
   18    17    19    1
   19    17    20    1
   20    20    21    1
   21    20    22    1
   22    20    23    1
   23    23    24    1
   24    23    25    1
   25    23    26    1
@<TRIPOS>SUBSTRUCTURE
       1 MOL1            1 RESIDUE      1      MOL     
@<SCITEGIC>MOL_PROPERTY
VM2 Rank
SciTegic.value.IntegerValue
10

@<SCITEGIC>MOL_PROPERTY
Conf_Id
SciTegic.value.IntegerValue
613

@<SCITEGIC>MOL_PROPERTY
Probability
SciTegic.value.DoubleValue
2.51

@<SCITEGIC>MOL_PROPERTY
Sum Probability
SciTegic.value.DoubleValue
37.88

@<SCITEGIC>MOL_PROPERTY
Delta G
SciTegic.value.DoubleValue
0.669

@<SCITEGIC>MOL_PROPERTY
G
SciTegic.value.DoubleValue
48.931

@<SCITEGIC>MOL_PROPERTY
E
SciTegic.value.DoubleValue
16.480

@<SCITEGIC>MOL_PROPERTY
-TS
SciTegic.value.DoubleValue
32.451

@<SCITEGIC>MOL_PROPERTY
U+W
SciTegic.value.DoubleValue
-4.982

@<SCITEGIC>MOL_PROPERTY
U
SciTegic.value.DoubleValue
48.035

@<SCITEGIC>MOL_PROPERTY
W
SciTegic.value.DoubleValue
-53.017

@<SCITEGIC>MOL_PROPERTY
W(PB)
SciTegic.value.DoubleValue
-55.374

@<SCITEGIC>MOL_PROPERTY
W(SA)
SciTegic.value.DoubleValue
2.357

@<SCITEGIC>MOL_PROPERTY
Valence
SciTegic.value.DoubleValue
2.701

@<SCITEGIC>MOL_PROPERTY
Coulomb
SciTegic.value.DoubleValue
44.622

@<SCITEGIC>MOL_PROPERTY
VdW
SciTegic.value.DoubleValue
0.712

@<SCITEGIC>MOL_PROPERTY
VdW6
SciTegic.value.DoubleValue
-6.418

@<SCITEGIC>MOL_PROPERTY
VdW12
SciTegic.value.DoubleValue
7.129

@<SCITEGIC>MOL_PROPERTY
Bond
SciTegic.value.DoubleValue
0.168

@<SCITEGIC>MOL_PROPERTY
Angle
SciTegic.value.DoubleValue
0.659

@<SCITEGIC>MOL_PROPERTY
Pdih
SciTegic.value.DoubleValue
1.875

@<SCITEGIC>MOL_PROPERTY
Idih
SciTegic.value.DoubleValue
0.000

@<SCITEGIC>MOL_PROPERTY
Tether
SciTegic.value.DoubleValue
0.000

@<TRIPOS>MOLECULE
guest-s14_vm2.mol2 : vm2 ligand conformer 11
          26          25           1
SMALL
USER_CHARGES
 
@<TRIPOS>ATOM
       1    C1      18.994002   18.648704   19.371804 C.3        1 MOL1        -0.2400
       2    H1      18.316418   17.868810   19.743113 H          1 MOL1         0.0971
       3    H2      18.444202   19.598755   19.352840 H          1 MOL1         0.0971
       4    H3      19.265030   18.395570   18.338600 H          1 MOL1         0.0971
       5    C2      20.254977   18.755077   20.255460 C.3        1 MOL1        -0.1385
       6    H4      20.927990   19.517747   19.839173 H          1 MOL1         0.0960
       7    H5      20.800894   17.801576   20.228190 H          1 MOL1         0.0960
       8    C3      19.901535   19.111688   21.716415 C.3        1 MOL1        -0.1409
       9    H6      19.357889   20.066249   21.738572 H          1 MOL1         0.0960
      10    H7      19.222370   18.347662   22.116586 H          1 MOL1         0.0960
      11    C4      21.165148   19.214614   22.604143 C.3        1 MOL1        -0.1409
      12    H8      21.866282   19.926259   22.146563 H          1 MOL1         0.0960
      13    H9      21.681719   18.245113   22.627720 H          1 MOL1         0.0960
      14    C5      20.869648   19.680236   24.051173 C.3        1 MOL1        -0.1409
      15    H10     21.826320   19.836223   24.569023 H          1 MOL1         0.0960
      16    H11     20.368701   20.658047   24.028471 H          1 MOL1         0.0960
      17    C6      20.017628   18.676543   24.863111 C.3        1 MOL1        -0.1450
      18    H12     20.493008   17.686839   24.843134 H          1 MOL1         0.0960
      19    H13     19.024741   18.568723   24.408741 H          1 MOL1         0.0960
      20    C7      19.852756   19.134796   26.322868 C.3        1 MOL1         0.0172
      21    H14     20.835608   19.227969   26.792740 H          1 MOL1         0.0934
      22    H15     19.364953   20.112984   26.348702 H          1 MOL1         0.0934
      23    N1      19.025305   18.177343   27.156026 N.4        1 MOL1        -0.5956
      24    H16     18.076970   18.066707   26.782376 H          1 MOL1         0.3624
      25    H17     18.928538   18.501246   28.124619 H          1 MOL1         0.3624
      26    H18     19.445617   17.242955   27.194636 H          1 MOL1         0.3624
@<TRIPOS>BOND
    1     1     2    1
    2     1     3    1
    3     1     4    1
    4     1     5    1
    5     5     6    1
    6     5     7    1
    7     5     8    1
    8     8     9    1
    9     8    10    1
   10     8    11    1
   11    11    12    1
   12    11    13    1
   13    11    14    1
   14    14    15    1
   15    14    16    1
   16    14    17    1
   17    17    18    1
   18    17    19    1
   19    17    20    1
   20    20    21    1
   21    20    22    1
   22    20    23    1
   23    23    24    1
   24    23    25    1
   25    23    26    1
@<TRIPOS>SUBSTRUCTURE
       1 MOL1            1 RESIDUE      1      MOL     
@<SCITEGIC>MOL_PROPERTY
VM2 Rank
SciTegic.value.IntegerValue
11

@<SCITEGIC>MOL_PROPERTY
Conf_Id
SciTegic.value.IntegerValue
493

@<SCITEGIC>MOL_PROPERTY
Probability
SciTegic.value.DoubleValue
2.44

@<SCITEGIC>MOL_PROPERTY
Sum Probability
SciTegic.value.DoubleValue
40.32

@<SCITEGIC>MOL_PROPERTY
Delta G
SciTegic.value.DoubleValue
0.685

@<SCITEGIC>MOL_PROPERTY
G
SciTegic.value.DoubleValue
48.947

@<SCITEGIC>MOL_PROPERTY
E
SciTegic.value.DoubleValue
16.494

@<SCITEGIC>MOL_PROPERTY
-TS
SciTegic.value.DoubleValue
32.453

@<SCITEGIC>MOL_PROPERTY
U+W
SciTegic.value.DoubleValue
-4.968

@<SCITEGIC>MOL_PROPERTY
U
SciTegic.value.DoubleValue
48.214

@<SCITEGIC>MOL_PROPERTY
W
SciTegic.value.DoubleValue
-53.182

@<SCITEGIC>MOL_PROPERTY
W(PB)
SciTegic.value.DoubleValue
-55.531

@<SCITEGIC>MOL_PROPERTY
W(SA)
SciTegic.value.DoubleValue
2.348

@<SCITEGIC>MOL_PROPERTY
Valence
SciTegic.value.DoubleValue
2.697

@<SCITEGIC>MOL_PROPERTY
Coulomb
SciTegic.value.DoubleValue
44.819

@<SCITEGIC>MOL_PROPERTY
VdW
SciTegic.value.DoubleValue
0.699

@<SCITEGIC>MOL_PROPERTY
VdW6
SciTegic.value.DoubleValue
-6.437

@<SCITEGIC>MOL_PROPERTY
VdW12
SciTegic.value.DoubleValue
7.136

@<SCITEGIC>MOL_PROPERTY
Bond
SciTegic.value.DoubleValue
0.168

@<SCITEGIC>MOL_PROPERTY
Angle
SciTegic.value.DoubleValue
0.657

@<SCITEGIC>MOL_PROPERTY
Pdih
SciTegic.value.DoubleValue
1.872

@<SCITEGIC>MOL_PROPERTY
Idih
SciTegic.value.DoubleValue
0.000

@<SCITEGIC>MOL_PROPERTY
Tether
SciTegic.value.DoubleValue
0.000

@<TRIPOS>MOLECULE
guest-s14_vm2.mol2 : vm2 ligand conformer 12
          26          25           1
SMALL
USER_CHARGES
 
@<TRIPOS>ATOM
       1    C1      20.462729   19.671165   19.522255 C.3        1 MOL1        -0.2400
       2    H1      21.315163   20.046306   20.101965 H          1 MOL1         0.0971
       3    H2      20.804651   19.526738   18.489218 H          1 MOL1         0.0971
       4    H3      19.684747   20.445559   19.513136 H          1 MOL1         0.0971
       5    C2      19.920470   18.345321   20.102666 C.3        1 MOL1        -0.1385
       6    H4      20.724821   17.596931   20.128850 H          1 MOL1         0.0960
       7    H5      19.153663   17.948682   19.422607 H          1 MOL1         0.0960
       8    C3      19.301788   18.498445   21.513161 C.3        1 MOL1        -0.1409
       9    H6      18.484819   19.232308   21.477563 H          1 MOL1         0.0960
      10    H7      18.844872   17.540926   21.798970 H          1 MOL1         0.0960
      11    C4      20.328121   18.911742   22.595226 C.3        1 MOL1        -0.1409
      12    H8      20.742277   19.900635   22.358679 H          1 MOL1         0.0960
      13    H9      21.168710   18.204183   22.592721 H          1 MOL1         0.0960
      14    C5      19.692170   18.952537   24.003254 C.3        1 MOL1        -0.1409
      15    H10     18.851070   19.659798   24.005049 H          1 MOL1         0.0960
      16    H11     19.278155   17.963871   24.242241 H          1 MOL1         0.0960
      17    C6      20.717298   19.368497   25.084687 C.3        1 MOL1        -0.1450
      18    H12     21.152597   20.340901   24.818385 H          1 MOL1         0.0960
      19    H13     21.547762   18.650475   25.112276 H          1 MOL1         0.0960
      20    C7      20.089693   19.483310   26.487281 C.3        1 MOL1         0.0172
      21    H14     20.838154   19.860053   27.189730 H          1 MOL1         0.0934
      22    H15     19.258456   20.193099   26.461651 H          1 MOL1         0.0934
      23    N1      19.568730   18.167983   27.032469 N.4        1 MOL1        -0.5956
      24    H16     18.832926   17.775070   26.437368 H          1 MOL1         0.3624
      25    H17     19.169641   18.276371   27.971253 H          1 MOL1         0.3624
      26    H18     20.310792   17.464050   27.102132 H          1 MOL1         0.3624
@<TRIPOS>BOND
    1     1     2    1
    2     1     3    1
    3     1     4    1
    4     1     5    1
    5     5     6    1
    6     5     7    1
    7     5     8    1
    8     8     9    1
    9     8    10    1
   10     8    11    1
   11    11    12    1
   12    11    13    1
   13    11    14    1
   14    14    15    1
   15    14    16    1
   16    14    17    1
   17    17    18    1
   18    17    19    1
   19    17    20    1
   20    20    21    1
   21    20    22    1
   22    20    23    1
   23    23    24    1
   24    23    25    1
   25    23    26    1
@<TRIPOS>SUBSTRUCTURE
       1 MOL1            1 RESIDUE      1      MOL     
@<SCITEGIC>MOL_PROPERTY
VM2 Rank
SciTegic.value.IntegerValue
12

@<SCITEGIC>MOL_PROPERTY
Conf_Id
SciTegic.value.IntegerValue
1229

@<SCITEGIC>MOL_PROPERTY
Probability
SciTegic.value.DoubleValue
1.94

@<SCITEGIC>MOL_PROPERTY
Sum Probability
SciTegic.value.DoubleValue
42.25

@<SCITEGIC>MOL_PROPERTY
Delta G
SciTegic.value.DoubleValue
0.824

@<SCITEGIC>MOL_PROPERTY
G
SciTegic.value.DoubleValue
49.085

@<SCITEGIC>MOL_PROPERTY
E
SciTegic.value.DoubleValue
16.519

@<SCITEGIC>MOL_PROPERTY
-TS
SciTegic.value.DoubleValue
32.566

@<SCITEGIC>MOL_PROPERTY
U+W
SciTegic.value.DoubleValue
-4.943

@<SCITEGIC>MOL_PROPERTY
U
SciTegic.value.DoubleValue
48.461

@<SCITEGIC>MOL_PROPERTY
W
SciTegic.value.DoubleValue
-53.404

@<SCITEGIC>MOL_PROPERTY
W(PB)
SciTegic.value.DoubleValue
-55.711

@<SCITEGIC>MOL_PROPERTY
W(SA)
SciTegic.value.DoubleValue
2.307

@<SCITEGIC>MOL_PROPERTY
Valence
SciTegic.value.DoubleValue
2.762

@<SCITEGIC>MOL_PROPERTY
Coulomb
SciTegic.value.DoubleValue
44.868

@<SCITEGIC>MOL_PROPERTY
VdW
SciTegic.value.DoubleValue
0.832

@<SCITEGIC>MOL_PROPERTY
VdW6
SciTegic.value.DoubleValue
-6.903

@<SCITEGIC>MOL_PROPERTY
VdW12
SciTegic.value.DoubleValue
7.735

@<SCITEGIC>MOL_PROPERTY
Bond
SciTegic.value.DoubleValue
0.184

@<SCITEGIC>MOL_PROPERTY
Angle
SciTegic.value.DoubleValue
0.674

@<SCITEGIC>MOL_PROPERTY
Pdih
SciTegic.value.DoubleValue
1.903

@<SCITEGIC>MOL_PROPERTY
Idih
SciTegic.value.DoubleValue
0.000

@<SCITEGIC>MOL_PROPERTY
Tether
SciTegic.value.DoubleValue
0.000

@<TRIPOS>MOLECULE
guest-s14_vm2.mol2 : vm2 ligand conformer 13
          26          25           1
SMALL
USER_CHARGES
 
@<TRIPOS>ATOM
       1    C1      20.561308   19.387839   19.212429 C.3        1 MOL1        -0.2400
       2    H1      19.532665   19.482878   18.840805 H          1 MOL1         0.0971
       3    H2      20.977485   20.397051   19.328718 H          1 MOL1         0.0971
       4    H3      21.149711   18.866945   18.445947 H          1 MOL1         0.0971
       5    C2      20.599541   18.614727   20.547697 C.3        1 MOL1        -0.1385
       6    H4      21.642685   18.506345   20.876358 H          1 MOL1         0.0960
       7    H5      20.208992   17.599229   20.392276 H          1 MOL1         0.0960
       8    C3      19.778099   19.327138   21.644971 C.3        1 MOL1        -0.1409
       9    H6      20.170750   20.342332   21.795276 H          1 MOL1         0.0960
      10    H7      18.737059   19.435415   21.310406 H          1 MOL1         0.0960
      11    C4      19.813680   18.555646   22.983535 C.3        1 MOL1        -0.1409
      12    H8      20.857035   18.444870   23.307633 H          1 MOL1         0.0960
      13    H9      19.417655   17.541890   22.832437 H          1 MOL1         0.0960
      14    C5      18.991555   19.272512   24.081276 C.3        1 MOL1        -0.1409
      15    H10     19.398743   20.277790   24.253639 H          1 MOL1         0.0960
      16    H11     17.962862   19.417670   23.723399 H          1 MOL1         0.0960
      17    C6      18.942002   18.487678   25.416216 C.3        1 MOL1        -0.1450
      18    H12     18.453326   17.518726   25.248310 H          1 MOL1         0.0960
      19    H13     18.309614   19.029120   26.132273 H          1 MOL1         0.0960
      20    C7      20.325349   18.240259   26.051541 C.3        1 MOL1         0.0172
      21    H14     20.203966   17.660878   26.970829 H          1 MOL1         0.0934
      22    H15     20.949318   17.661243   25.365945 H          1 MOL1         0.0934
      23    N1      21.069465   19.513199   26.403335 N.4        1 MOL1        -0.5956
      24    H16     20.544388   20.088867   27.069534 H          1 MOL1         0.3624
      25    H17     21.242971   20.090157   25.574474 H          1 MOL1         0.3624
      26    H18     21.981072   19.316309   26.830406 H          1 MOL1         0.3624
@<TRIPOS>BOND
    1     1     2    1
    2     1     3    1
    3     1     4    1
    4     1     5    1
    5     5     6    1
    6     5     7    1
    7     5     8    1
    8     8     9    1
    9     8    10    1
   10     8    11    1
   11    11    12    1
   12    11    13    1
   13    11    14    1
   14    14    15    1
   15    14    16    1
   16    14    17    1
   17    17    18    1
   18    17    19    1
   19    17    20    1
   20    20    21    1
   21    20    22    1
   22    20    23    1
   23    23    24    1
   24    23    25    1
   25    23    26    1
@<TRIPOS>SUBSTRUCTURE
       1 MOL1            1 RESIDUE      1      MOL     
@<SCITEGIC>MOL_PROPERTY
VM2 Rank
SciTegic.value.IntegerValue
13

@<SCITEGIC>MOL_PROPERTY
Conf_Id
SciTegic.value.IntegerValue
198

@<SCITEGIC>MOL_PROPERTY
Probability
SciTegic.value.DoubleValue
1.88

@<SCITEGIC>MOL_PROPERTY
Sum Probability
SciTegic.value.DoubleValue
44.13

@<SCITEGIC>MOL_PROPERTY
Delta G
SciTegic.value.DoubleValue
0.842

@<SCITEGIC>MOL_PROPERTY
G
SciTegic.value.DoubleValue
49.103

@<SCITEGIC>MOL_PROPERTY
E
SciTegic.value.DoubleValue
16.466

@<SCITEGIC>MOL_PROPERTY
-TS
SciTegic.value.DoubleValue
32.638

@<SCITEGIC>MOL_PROPERTY
U+W
SciTegic.value.DoubleValue
-4.996

@<SCITEGIC>MOL_PROPERTY
U
SciTegic.value.DoubleValue
48.668

@<SCITEGIC>MOL_PROPERTY
W
SciTegic.value.DoubleValue
-53.664

@<SCITEGIC>MOL_PROPERTY
W(PB)
SciTegic.value.DoubleValue
-55.973

@<SCITEGIC>MOL_PROPERTY
W(SA)
SciTegic.value.DoubleValue
2.309

@<SCITEGIC>MOL_PROPERTY
Valence
SciTegic.value.DoubleValue
2.544

@<SCITEGIC>MOL_PROPERTY
Coulomb
SciTegic.value.DoubleValue
45.478

@<SCITEGIC>MOL_PROPERTY
VdW
SciTegic.value.DoubleValue
0.646

@<SCITEGIC>MOL_PROPERTY
VdW6
SciTegic.value.DoubleValue
-7.095

@<SCITEGIC>MOL_PROPERTY
VdW12
SciTegic.value.DoubleValue
7.741

@<SCITEGIC>MOL_PROPERTY
Bond
SciTegic.value.DoubleValue
0.176

@<SCITEGIC>MOL_PROPERTY
Angle
SciTegic.value.DoubleValue
0.630

@<SCITEGIC>MOL_PROPERTY
Pdih
SciTegic.value.DoubleValue
1.738

@<SCITEGIC>MOL_PROPERTY
Idih
SciTegic.value.DoubleValue
0.000

@<SCITEGIC>MOL_PROPERTY
Tether
SciTegic.value.DoubleValue
0.000

@<TRIPOS>MOLECULE
guest-s14_vm2.mol2 : vm2 ligand conformer 14
          26          25           1
SMALL
USER_CHARGES
 
@<TRIPOS>ATOM
       1    C1      19.464668   18.189547   19.603749 C.3        1 MOL1        -0.2400
       2    H1      18.388954   18.372651   19.723471 H          1 MOL1         0.0971
       3    H2      19.654501   17.986989   18.541737 H          1 MOL1         0.0971
       4    H3      19.723927   17.282454   20.163581 H          1 MOL1         0.0971
       5    C2      20.291740   19.405846   20.078452 C.3        1 MOL1        -0.1385
       6    H4      20.087142   20.255027   19.411498 H          1 MOL1         0.0960
       7    H5      21.363741   19.186345   19.976523 H          1 MOL1         0.0960
       8    C3      19.980589   19.831380   21.533721 C.3        1 MOL1        -0.1409
       9    H6      20.524508   20.761585   21.748651 H          1 MOL1         0.0960
      10    H7      18.911984   20.069952   21.625432 H          1 MOL1         0.0960
      11    C4      20.369583   18.764202   22.584826 C.3        1 MOL1        -0.1409
      12    H8      21.425662   18.490146   22.455212 H          1 MOL1         0.0960
      13    H9      19.780821   17.851203   22.426003 H          1 MOL1         0.0960
      14    C5      20.140113   19.269479   24.027272 C.3        1 MOL1        -0.1409
      15    H10     20.733605   20.178697   24.196741 H          1 MOL1         0.0960
      16    H11     19.085226   19.549920   24.148111 H          1 MOL1         0.0960
      17    C6      20.524395   18.201016   25.078032 C.3        1 MOL1        -0.1450
      18    H12     21.569251   17.899708   24.924863 H          1 MOL1         0.0960
      19    H13     19.914369   17.298649   24.938075 H          1 MOL1         0.0960
      20    C7      20.370164   18.706744   26.525369 C.3        1 MOL1         0.0172
      21    H14     20.734178   17.942373   27.217319 H          1 MOL1         0.0934
      22    H15     20.972019   19.608587   26.666295 H          1 MOL1         0.0934
      23    N1      18.939748   19.030787   26.909579 N.4        1 MOL1        -0.5956
      24    H16     18.546712   19.771122   26.320204 H          1 MOL1         0.3624
      25    H17     18.870041   19.351906   27.881361 H          1 MOL1         0.3624
      26    H18     18.326924   18.213856   26.819601 H          1 MOL1         0.3624
@<TRIPOS>BOND
    1     1     2    1
    2     1     3    1
    3     1     4    1
    4     1     5    1
    5     5     6    1
    6     5     7    1
    7     5     8    1
    8     8     9    1
    9     8    10    1
   10     8    11    1
   11    11    12    1
   12    11    13    1
   13    11    14    1
   14    14    15    1
   15    14    16    1
   16    14    17    1
   17    17    18    1
   18    17    19    1
   19    17    20    1
   20    20    21    1
   21    20    22    1
   22    20    23    1
   23    23    24    1
   24    23    25    1
   25    23    26    1
@<TRIPOS>SUBSTRUCTURE
       1 MOL1            1 RESIDUE      1      MOL     
@<SCITEGIC>MOL_PROPERTY
VM2 Rank
SciTegic.value.IntegerValue
14

@<SCITEGIC>MOL_PROPERTY
Conf_Id
SciTegic.value.IntegerValue
473

@<SCITEGIC>MOL_PROPERTY
Probability
SciTegic.value.DoubleValue
1.83

@<SCITEGIC>MOL_PROPERTY
Sum Probability
SciTegic.value.DoubleValue
45.97

@<SCITEGIC>MOL_PROPERTY
Delta G
SciTegic.value.DoubleValue
0.856

@<SCITEGIC>MOL_PROPERTY
G
SciTegic.value.DoubleValue
49.118

@<SCITEGIC>MOL_PROPERTY
E
SciTegic.value.DoubleValue
16.552

@<SCITEGIC>MOL_PROPERTY
-TS
SciTegic.value.DoubleValue
32.566

@<SCITEGIC>MOL_PROPERTY
U+W
SciTegic.value.DoubleValue
-4.910

@<SCITEGIC>MOL_PROPERTY
U
SciTegic.value.DoubleValue
48.485

@<SCITEGIC>MOL_PROPERTY
W
SciTegic.value.DoubleValue
-53.396

@<SCITEGIC>MOL_PROPERTY
W(PB)
SciTegic.value.DoubleValue
-55.720

@<SCITEGIC>MOL_PROPERTY
W(SA)
SciTegic.value.DoubleValue
2.324

@<SCITEGIC>MOL_PROPERTY
Valence
SciTegic.value.DoubleValue
2.763

@<SCITEGIC>MOL_PROPERTY
Coulomb
SciTegic.value.DoubleValue
44.894

@<SCITEGIC>MOL_PROPERTY
VdW
SciTegic.value.DoubleValue
0.828

@<SCITEGIC>MOL_PROPERTY
VdW6
SciTegic.value.DoubleValue
-6.904

@<SCITEGIC>MOL_PROPERTY
VdW12
SciTegic.value.DoubleValue
7.733

@<SCITEGIC>MOL_PROPERTY
Bond
SciTegic.value.DoubleValue
0.184

@<SCITEGIC>MOL_PROPERTY
Angle
SciTegic.value.DoubleValue
0.675

@<SCITEGIC>MOL_PROPERTY
Pdih
SciTegic.value.DoubleValue
1.904

@<SCITEGIC>MOL_PROPERTY
Idih
SciTegic.value.DoubleValue
0.000

@<SCITEGIC>MOL_PROPERTY
Tether
SciTegic.value.DoubleValue
0.000

@<TRIPOS>MOLECULE
guest-s14_vm2.mol2 : vm2 ligand conformer 15
          26          25           1
SMALL
USER_CHARGES
 
@<TRIPOS>ATOM
       1    C1      21.071057   19.250071   19.657408 C.3        1 MOL1        -0.2400
       2    H1      21.318803   20.306828   19.821442 H          1 MOL1         0.0971
       3    H2      21.776904   18.637728   20.232091 H          1 MOL1         0.0971
       4    H3      21.232145   19.028650   18.594412 H          1 MOL1         0.0971
       5    C2      19.607293   18.954052   20.055578 C.3        1 MOL1        -0.1385
       6    H4      19.393633   17.885829   19.910656 H          1 MOL1         0.0960
       7    H5      18.938206   19.496634   19.373140 H          1 MOL1         0.0960
       8    C3      19.270565   19.362633   21.510011 C.3        1 MOL1        -0.1409
       9    H6      19.465729   20.435580   21.643952 H          1 MOL1         0.0960
      10    H7      18.192732   19.222103   21.670795 H          1 MOL1         0.0960
      11    C4      20.049948   18.553168   22.574123 C.3        1 MOL1        -0.1409
      12    H8      21.126926   18.740008   22.470967 H          1 MOL1         0.0960
      13    H9      19.894119   17.478937   22.403971 H          1 MOL1         0.0960
      14    C5      19.608435   18.918397   24.009493 C.3        1 MOL1        -0.1409
      15    H10     19.758277   19.994326   24.170619 H          1 MOL1         0.0960
      16    H11     18.532593   18.725341   24.123165 H          1 MOL1         0.0960
      17    C6      20.390886   18.112839   25.073553 C.3        1 MOL1        -0.1450
      18    H12     21.465530   18.322936   24.989964 H          1 MOL1         0.0960
      19    H13     20.265711   17.038914   24.881220 H          1 MOL1         0.0960
      20    C7      19.919143   18.408892   26.510266 C.3        1 MOL1         0.0172
      21    H14     18.848127   18.206101   26.595187 H          1 MOL1         0.0934
      22    H15     20.446748   17.752541   27.207689 H          1 MOL1         0.0934
      23    N1      20.163674   19.838947   26.950567 N.4        1 MOL1        -0.5956
      24    H16     19.850515   19.999385   27.914168 H          1 MOL1         0.3624
      25    H17     19.664822   20.509368   26.357593 H          1 MOL1         0.3624
      26    H18     21.158591   20.083616   26.914519 H          1 MOL1         0.3624
@<TRIPOS>BOND
    1     1     2    1
    2     1     3    1
    3     1     4    1
    4     1     5    1
    5     5     6    1
    6     5     7    1
    7     5     8    1
    8     8     9    1
    9     8    10    1
   10     8    11    1
   11    11    12    1
   12    11    13    1
   13    11    14    1
   14    14    15    1
   15    14    16    1
   16    14    17    1
   17    17    18    1
   18    17    19    1
   19    17    20    1
   20    20    21    1
   21    20    22    1
   22    20    23    1
   23    23    24    1
   24    23    25    1
   25    23    26    1
@<TRIPOS>SUBSTRUCTURE
       1 MOL1            1 RESIDUE      1      MOL     
@<SCITEGIC>MOL_PROPERTY
VM2 Rank
SciTegic.value.IntegerValue
15

@<SCITEGIC>MOL_PROPERTY
Conf_Id
SciTegic.value.IntegerValue
1278

@<SCITEGIC>MOL_PROPERTY
Probability
SciTegic.value.DoubleValue
1.81

@<SCITEGIC>MOL_PROPERTY
Sum Probability
SciTegic.value.DoubleValue
47.77

@<SCITEGIC>MOL_PROPERTY
Delta G
SciTegic.value.DoubleValue
0.865

@<SCITEGIC>MOL_PROPERTY
G
SciTegic.value.DoubleValue
49.127

@<SCITEGIC>MOL_PROPERTY
E
SciTegic.value.DoubleValue
16.560

@<SCITEGIC>MOL_PROPERTY
-TS
SciTegic.value.DoubleValue
32.566

@<SCITEGIC>MOL_PROPERTY
U+W
SciTegic.value.DoubleValue
-4.901

@<SCITEGIC>MOL_PROPERTY
U
SciTegic.value.DoubleValue
48.485

@<SCITEGIC>MOL_PROPERTY
W
SciTegic.value.DoubleValue
-53.387

@<SCITEGIC>MOL_PROPERTY
W(PB)
SciTegic.value.DoubleValue
-55.718

@<SCITEGIC>MOL_PROPERTY
W(SA)
SciTegic.value.DoubleValue
2.331

@<SCITEGIC>MOL_PROPERTY
Valence
SciTegic.value.DoubleValue
2.763

@<SCITEGIC>MOL_PROPERTY
Coulomb
SciTegic.value.DoubleValue
44.894

@<SCITEGIC>MOL_PROPERTY
VdW
SciTegic.value.DoubleValue
0.828

@<SCITEGIC>MOL_PROPERTY
VdW6
SciTegic.value.DoubleValue
-6.904

@<SCITEGIC>MOL_PROPERTY
VdW12
SciTegic.value.DoubleValue
7.733

@<SCITEGIC>MOL_PROPERTY
Bond
SciTegic.value.DoubleValue
0.184

@<SCITEGIC>MOL_PROPERTY
Angle
SciTegic.value.DoubleValue
0.675

@<SCITEGIC>MOL_PROPERTY
Pdih
SciTegic.value.DoubleValue
1.904

@<SCITEGIC>MOL_PROPERTY
Idih
SciTegic.value.DoubleValue
0.000

@<SCITEGIC>MOL_PROPERTY
Tether
SciTegic.value.DoubleValue
0.000

@<TRIPOS>MOLECULE
guest-s14_vm2.mol2 : vm2 ligand conformer 16
          26          25           1
SMALL
USER_CHARGES
 
@<TRIPOS>ATOM
       1    C1      19.558383   18.726284   19.178924 C.3        1 MOL1        -0.2400
       2    H1      19.841174   18.003779   18.402355 H          1 MOL1         0.0971
       3    H2      18.462591   18.738777   19.244647 H          1 MOL1         0.0971
       4    H3      19.892728   19.719779   18.852697 H          1 MOL1         0.0971
       5    C2      20.191133   18.345338   20.534142 C.3        1 MOL1        -0.1385
       6    H4      21.284454   18.308139   20.428374 H          1 MOL1         0.0960
       7    H5      19.865444   17.334523   20.817148 H          1 MOL1         0.0960
       8    C3      19.808511   19.347220   21.645962 C.3        1 MOL1        -0.1409
       9    H6      20.133621   20.356271   21.356929 H          1 MOL1         0.0960
      10    H7      18.714885   19.382411   21.746608 H          1 MOL1         0.0960
      11    C4      20.440806   18.969326   23.004499 C.3        1 MOL1        -0.1409
      12    H8      21.534485   18.938070   22.903222 H          1 MOL1         0.0960
      13    H9      20.117771   17.957384   23.282929 H          1 MOL1         0.0960
      14    C5      20.054049   19.973354   24.116781 C.3        1 MOL1        -0.1409
      15    H10     20.341307   20.986426   23.802896 H          1 MOL1         0.0960
      16    H11     18.962783   19.990348   24.239032 H          1 MOL1         0.0960
      17    C6      20.732202   19.668500   25.476070 C.3        1 MOL1        -0.1450
      18    H12     20.449744   20.440751   26.203845 H          1 MOL1         0.0960
      19    H13     21.821888   19.740655   25.360980 H          1 MOL1         0.0960
      20    C7      20.386827   18.280786   26.053540 C.3        1 MOL1         0.0172
      21    H14     20.705619   17.500519   25.357698 H          1 MOL1         0.0934
      22    H15     20.923884   18.135648   26.994820 H          1 MOL1         0.0934
      23    N1      18.909088   18.088191   26.331083 N.4        1 MOL1        -0.5956
      24    H16     18.349574   18.181785   25.477747 H          1 MOL1         0.3624
      25    H17     18.555476   18.776858   27.003106 H          1 MOL1         0.3624
      26    H18     18.712170   17.160090   26.720998 H          1 MOL1         0.3624
@<TRIPOS>BOND
    1     1     2    1
    2     1     3    1
    3     1     4    1
    4     1     5    1
    5     5     6    1
    6     5     7    1
    7     5     8    1
    8     8     9    1
    9     8    10    1
   10     8    11    1
   11    11    12    1
   12    11    13    1
   13    11    14    1
   14    14    15    1
   15    14    16    1
   16    14    17    1
   17    17    18    1
   18    17    19    1
   19    17    20    1
   20    20    21    1
   21    20    22    1
   22    20    23    1
   23    23    24    1
   24    23    25    1
   25    23    26    1
@<TRIPOS>SUBSTRUCTURE
       1 MOL1            1 RESIDUE      1      MOL     
@<SCITEGIC>MOL_PROPERTY
VM2 Rank
SciTegic.value.IntegerValue
16

@<SCITEGIC>MOL_PROPERTY
Conf_Id
SciTegic.value.IntegerValue
761

@<SCITEGIC>MOL_PROPERTY
Probability
SciTegic.value.DoubleValue
1.78

@<SCITEGIC>MOL_PROPERTY
Sum Probability
SciTegic.value.DoubleValue
49.55

@<SCITEGIC>MOL_PROPERTY
Delta G
SciTegic.value.DoubleValue
0.874

@<SCITEGIC>MOL_PROPERTY
G
SciTegic.value.DoubleValue
49.136

@<SCITEGIC>MOL_PROPERTY
E
SciTegic.value.DoubleValue
16.498

@<SCITEGIC>MOL_PROPERTY
-TS
SciTegic.value.DoubleValue
32.638

@<SCITEGIC>MOL_PROPERTY
U+W
SciTegic.value.DoubleValue
-4.964

@<SCITEGIC>MOL_PROPERTY
U
SciTegic.value.DoubleValue
48.668

@<SCITEGIC>MOL_PROPERTY
W
SciTegic.value.DoubleValue
-53.631

@<SCITEGIC>MOL_PROPERTY
W(PB)
SciTegic.value.DoubleValue
-55.949

@<SCITEGIC>MOL_PROPERTY
W(SA)
SciTegic.value.DoubleValue
2.318

@<SCITEGIC>MOL_PROPERTY
Valence
SciTegic.value.DoubleValue
2.544

@<SCITEGIC>MOL_PROPERTY
Coulomb
SciTegic.value.DoubleValue
45.478

@<SCITEGIC>MOL_PROPERTY
VdW
SciTegic.value.DoubleValue
0.646

@<SCITEGIC>MOL_PROPERTY
VdW6
SciTegic.value.DoubleValue
-7.095

@<SCITEGIC>MOL_PROPERTY
VdW12
SciTegic.value.DoubleValue
7.741

@<SCITEGIC>MOL_PROPERTY
Bond
SciTegic.value.DoubleValue
0.176

@<SCITEGIC>MOL_PROPERTY
Angle
SciTegic.value.DoubleValue
0.630

@<SCITEGIC>MOL_PROPERTY
Pdih
SciTegic.value.DoubleValue
1.738

@<SCITEGIC>MOL_PROPERTY
Idih
SciTegic.value.DoubleValue
0.000

@<SCITEGIC>MOL_PROPERTY
Tether
SciTegic.value.DoubleValue
0.000

@<TRIPOS>MOLECULE
guest-s14_vm2.mol2 : vm2 ligand conformer 17
          26          25           1
SMALL
USER_CHARGES
 
@<TRIPOS>ATOM
       1    C1      19.322424   18.918731   19.484171 C.3        1 MOL1        -0.2400
       2    H1      19.368967   18.579446   18.441264 H          1 MOL1         0.0971
       3    H2      18.616329   18.265688   20.011812 H          1 MOL1         0.0971
       4    H3      18.916797   19.938770   19.487496 H          1 MOL1         0.0971
       5    C2      20.726152   18.876664   20.129588 C.3        1 MOL1        -0.1385
       6    H4      21.423072   19.445616   19.498404 H          1 MOL1         0.0960
       7    H5      21.096726   17.842116   20.141310 H          1 MOL1         0.0960
       8    C3      20.762715   19.462077   21.561953 C.3        1 MOL1        -0.1409
       9    H6      21.808297   19.495538   21.898019 H          1 MOL1         0.0960
      10    H7      20.411108   20.502859   21.541824 H          1 MOL1         0.0960
      11    C4      19.929680   18.649187   22.581903 C.3        1 MOL1        -0.1409
      12    H8      20.249467   17.598200   22.561957 H          1 MOL1         0.0960
      13    H9      18.869752   18.666051   22.296145 H          1 MOL1         0.0960
      14    C5      20.076560   19.206115   24.016096 C.3        1 MOL1        -0.1409
      15    H10     21.136093   19.188965   24.304329 H          1 MOL1         0.0960
      16    H11     19.757456   20.257529   24.035336 H          1 MOL1         0.0960
      17    C6      19.241371   18.395572   25.035353 C.3        1 MOL1        -0.1450
      18    H12     19.573059   17.348743   25.046176 H          1 MOL1         0.0960
      19    H13     18.189661   18.387736   24.719418 H          1 MOL1         0.0960
      20    C7      19.317397   18.974080   26.461501 C.3        1 MOL1         0.0172
      21    H14     18.993563   20.018335   26.452909 H          1 MOL1         0.0934
      22    H15     18.644506   18.413849   27.116424 H          1 MOL1         0.0934
      23    N1      20.704700   18.916575   27.070436 N.4        1 MOL1        -0.5956
      24    H16     20.718369   19.296992   28.023028 H          1 MOL1         0.3624
      25    H17     21.382485   19.455467   26.522589 H          1 MOL1         0.3624
      26    H18     21.056147   17.955163   27.127007 H          1 MOL1         0.3624
@<TRIPOS>BOND
    1     1     2    1
    2     1     3    1
    3     1     4    1
    4     1     5    1
    5     5     6    1
    6     5     7    1
    7     5     8    1
    8     8     9    1
    9     8    10    1
   10     8    11    1
   11    11    12    1
   12    11    13    1
   13    11    14    1
   14    14    15    1
   15    14    16    1
   16    14    17    1
   17    17    18    1
   18    17    19    1
   19    17    20    1
   20    20    21    1
   21    20    22    1
   22    20    23    1
   23    23    24    1
   24    23    25    1
   25    23    26    1
@<TRIPOS>SUBSTRUCTURE
       1 MOL1            1 RESIDUE      1      MOL     
@<SCITEGIC>MOL_PROPERTY
VM2 Rank
SciTegic.value.IntegerValue
17

@<SCITEGIC>MOL_PROPERTY
Conf_Id
SciTegic.value.IntegerValue
1075

@<SCITEGIC>MOL_PROPERTY
Probability
SciTegic.value.DoubleValue
1.74

@<SCITEGIC>MOL_PROPERTY
Sum Probability
SciTegic.value.DoubleValue
51.29

@<SCITEGIC>MOL_PROPERTY
Delta G
SciTegic.value.DoubleValue
0.887

@<SCITEGIC>MOL_PROPERTY
G
SciTegic.value.DoubleValue
49.148

@<SCITEGIC>MOL_PROPERTY
E
SciTegic.value.DoubleValue
16.582

@<SCITEGIC>MOL_PROPERTY
-TS
SciTegic.value.DoubleValue
32.566

@<SCITEGIC>MOL_PROPERTY
U+W
SciTegic.value.DoubleValue
-4.880

@<SCITEGIC>MOL_PROPERTY
U
SciTegic.value.DoubleValue
48.461

@<SCITEGIC>MOL_PROPERTY
W
SciTegic.value.DoubleValue
-53.341

@<SCITEGIC>MOL_PROPERTY
W(PB)
SciTegic.value.DoubleValue
-55.654

@<SCITEGIC>MOL_PROPERTY
W(SA)
SciTegic.value.DoubleValue
2.313

@<SCITEGIC>MOL_PROPERTY
Valence
SciTegic.value.DoubleValue
2.762

@<SCITEGIC>MOL_PROPERTY
Coulomb
SciTegic.value.DoubleValue
44.868

@<SCITEGIC>MOL_PROPERTY
VdW
SciTegic.value.DoubleValue
0.831

@<SCITEGIC>MOL_PROPERTY
VdW6
SciTegic.value.DoubleValue
-6.903

@<SCITEGIC>MOL_PROPERTY
VdW12
SciTegic.value.DoubleValue
7.734

@<SCITEGIC>MOL_PROPERTY
Bond
SciTegic.value.DoubleValue
0.184

@<SCITEGIC>MOL_PROPERTY
Angle
SciTegic.value.DoubleValue
0.674

@<SCITEGIC>MOL_PROPERTY
Pdih
SciTegic.value.DoubleValue
1.903

@<SCITEGIC>MOL_PROPERTY
Idih
SciTegic.value.DoubleValue
0.000

@<SCITEGIC>MOL_PROPERTY
Tether
SciTegic.value.DoubleValue
0.000

@<TRIPOS>MOLECULE
guest-s14_vm2.mol2 : vm2 ligand conformer 18
          26          25           1
SMALL
USER_CHARGES
 
@<TRIPOS>ATOM
       1    C1      19.477316   19.880417   19.423587 C.3        1 MOL1        -0.2400
       2    H1      19.738289   19.751377   18.365152 H          1 MOL1         0.0971
       3    H2      18.387759   19.782953   19.516329 H          1 MOL1         0.0971
       4    H3      19.755600   20.900986   19.717225 H          1 MOL1         0.0971
       5    C2      20.204010   18.834465   20.295428 C.3        1 MOL1        -0.1385
       6    H4      21.289623   18.934713   20.156415 H          1 MOL1         0.0960
       7    H5      19.932691   17.825192   19.955353 H          1 MOL1         0.0960
       8    C3      19.853280   18.993404   21.791476 C.3        1 MOL1        -0.1409
       9    H6      20.120575   20.007591   22.115804 H          1 MOL1         0.0960
      10    H7      18.767626   18.890491   21.925519 H          1 MOL1         0.0960
      11    C4      20.584675   17.947590   22.667020 C.3        1 MOL1        -0.1409
      12    H8      21.671331   18.082082   22.575369 H          1 MOL1         0.0960
      13    H9      20.365092   16.942188   22.281873 H          1 MOL1         0.0960
      14    C5      20.179489   17.999686   24.160575 C.3        1 MOL1        -0.1409
      15    H10     19.096311   17.840893   24.247823 H          1 MOL1         0.0960
      16    H11     20.658894   17.158868   24.680950 H          1 MOL1         0.0960
      17    C6      20.581405   19.320561   24.863142 C.3        1 MOL1        -0.1450
      18    H12     20.033263   20.167541   24.431613 H          1 MOL1         0.0960
      19    H13     21.648424   19.514543   24.691040 H          1 MOL1         0.0960
      20    C7      20.331744   19.281398   26.383050 C.3        1 MOL1         0.0172
      21    H14     20.876232   18.442068   26.824022 H          1 MOL1         0.0934
      22    H15     20.703314   20.204629   26.835965 H          1 MOL1         0.0934
      23    N1      18.869081   19.141479   26.756722 N.4        1 MOL1        -0.5956
      24    H16     18.735467   19.129356   27.773730 H          1 MOL1         0.3624
      25    H17     18.465438   18.273662   26.390761 H          1 MOL1         0.3624
      26    H18     18.306554   19.916077   26.389978 H          1 MOL1         0.3624
@<TRIPOS>BOND
    1     1     2    1
    2     1     3    1
    3     1     4    1
    4     1     5    1
    5     5     6    1
    6     5     7    1
    7     5     8    1
    8     8     9    1
    9     8    10    1
   10     8    11    1
   11    11    12    1
   12    11    13    1
   13    11    14    1
   14    14    15    1
   15    14    16    1
   16    14    17    1
   17    17    18    1
   18    17    19    1
   19    17    20    1
   20    20    21    1
   21    20    22    1
   22    20    23    1
   23    23    24    1
   24    23    25    1
   25    23    26    1
@<TRIPOS>SUBSTRUCTURE
       1 MOL1            1 RESIDUE      1      MOL     
@<SCITEGIC>MOL_PROPERTY
VM2 Rank
SciTegic.value.IntegerValue
18

@<SCITEGIC>MOL_PROPERTY
Conf_Id
SciTegic.value.IntegerValue
1275

@<SCITEGIC>MOL_PROPERTY
Probability
SciTegic.value.DoubleValue
1.69

@<SCITEGIC>MOL_PROPERTY
Sum Probability
SciTegic.value.DoubleValue
52.99

@<SCITEGIC>MOL_PROPERTY
Delta G
SciTegic.value.DoubleValue
0.904

@<SCITEGIC>MOL_PROPERTY
G
SciTegic.value.DoubleValue
49.165

@<SCITEGIC>MOL_PROPERTY
E
SciTegic.value.DoubleValue
16.599

@<SCITEGIC>MOL_PROPERTY
-TS
SciTegic.value.DoubleValue
32.567

@<SCITEGIC>MOL_PROPERTY
U+W
SciTegic.value.DoubleValue
-4.863

@<SCITEGIC>MOL_PROPERTY
U
SciTegic.value.DoubleValue
48.698

@<SCITEGIC>MOL_PROPERTY
W
SciTegic.value.DoubleValue
-53.561

@<SCITEGIC>MOL_PROPERTY
W(PB)
SciTegic.value.DoubleValue
-55.857

@<SCITEGIC>MOL_PROPERTY
W(SA)
SciTegic.value.DoubleValue
2.296

@<SCITEGIC>MOL_PROPERTY
Valence
SciTegic.value.DoubleValue
2.792

@<SCITEGIC>MOL_PROPERTY
Coulomb
SciTegic.value.DoubleValue
45.121

@<SCITEGIC>MOL_PROPERTY
VdW
SciTegic.value.DoubleValue
0.785

@<SCITEGIC>MOL_PROPERTY
VdW6
SciTegic.value.DoubleValue
-6.974

@<SCITEGIC>MOL_PROPERTY
VdW12
SciTegic.value.DoubleValue
7.758

@<SCITEGIC>MOL_PROPERTY
Bond
SciTegic.value.DoubleValue
0.189

@<SCITEGIC>MOL_PROPERTY
Angle
SciTegic.value.DoubleValue
0.672

@<SCITEGIC>MOL_PROPERTY
Pdih
SciTegic.value.DoubleValue
1.931

@<SCITEGIC>MOL_PROPERTY
Idih
SciTegic.value.DoubleValue
0.000

@<SCITEGIC>MOL_PROPERTY
Tether
SciTegic.value.DoubleValue
0.000

@<TRIPOS>MOLECULE
guest-s14_vm2.mol2 : vm2 ligand conformer 19
          26          25           1
SMALL
USER_CHARGES
 
@<TRIPOS>ATOM
       1    C1      19.520731   19.909083   19.425009 C.3        1 MOL1        -0.2400
       2    H1      19.586394   19.651053   18.360043 H          1 MOL1         0.0971
       3    H2      18.460229   20.045625   19.673844 H          1 MOL1         0.0971
       4    H3      20.032694   20.869146   19.571320 H          1 MOL1         0.0971
       5    C2      20.156695   18.803235   20.293837 C.3        1 MOL1        -0.1385
       6    H4      21.206247   18.666161   19.997946 H          1 MOL1         0.0960
       7    H5      19.645873   17.849312   20.101430 H          1 MOL1         0.0960
       8    C3      20.078365   19.142054   21.798997 C.3        1 MOL1        -0.1409
       9    H6      20.591846   20.095143   21.986510 H          1 MOL1         0.0960
      10    H7      19.026607   19.285191   22.079223 H          1 MOL1         0.0960
      11    C4      20.712274   18.031862   22.671283 C.3        1 MOL1        -0.1409
      12    H8      21.740098   17.850193   22.327828 H          1 MOL1         0.0960
      13    H9      20.167403   17.088964   22.525097 H          1 MOL1         0.0960
      14    C5      20.753617   18.378807   24.179766 C.3        1 MOL1        -0.1409
      15    H10     21.314370   17.591696   24.702841 H          1 MOL1         0.0960
      16    H11     21.319653   19.309094   24.322142 H          1 MOL1         0.0960
      17    C6      19.349732   18.507168   24.822008 C.3        1 MOL1        -0.1450
      18    H12     18.761649   17.608151   24.594617 H          1 MOL1         0.0960
      19    H13     18.806082   19.357114   24.390628 H          1 MOL1         0.0960
      20    C7      19.412838   18.674547   26.352367 C.3        1 MOL1         0.0172
      21    H14     18.397869   18.682085   26.758980 H          1 MOL1         0.0934
      22    H15     19.950490   17.830700   26.793104 H          1 MOL1         0.0934
      23    N1      20.096748   19.952245   26.797733 N.4        1 MOL1        -0.5956
      24    H16     19.622174   20.784947   26.433964 H          1 MOL1         0.3624
      25    H17     21.069297   19.993310   26.477699 H          1 MOL1         0.3624
      26    H18     20.112976   20.039038   27.819747 H          1 MOL1         0.3624
@<TRIPOS>BOND
    1     1     2    1
    2     1     3    1
    3     1     4    1
    4     1     5    1
    5     5     6    1
    6     5     7    1
    7     5     8    1
    8     8     9    1
    9     8    10    1
   10     8    11    1
   11    11    12    1
   12    11    13    1
   13    11    14    1
   14    14    15    1
   15    14    16    1
   16    14    17    1
   17    17    18    1
   18    17    19    1
   19    17    20    1
   20    20    21    1
   21    20    22    1
   22    20    23    1
   23    23    24    1
   24    23    25    1
   25    23    26    1
@<TRIPOS>SUBSTRUCTURE
       1 MOL1            1 RESIDUE      1      MOL     
@<SCITEGIC>MOL_PROPERTY
VM2 Rank
SciTegic.value.IntegerValue
19

@<SCITEGIC>MOL_PROPERTY
Conf_Id
SciTegic.value.IntegerValue
201

@<SCITEGIC>MOL_PROPERTY
Probability
SciTegic.value.DoubleValue
1.65

@<SCITEGIC>MOL_PROPERTY
Sum Probability
SciTegic.value.DoubleValue
54.63

@<SCITEGIC>MOL_PROPERTY
Delta G
SciTegic.value.DoubleValue
0.920

@<SCITEGIC>MOL_PROPERTY
G
SciTegic.value.DoubleValue
49.181

@<SCITEGIC>MOL_PROPERTY
E
SciTegic.value.DoubleValue
16.614

@<SCITEGIC>MOL_PROPERTY
-TS
SciTegic.value.DoubleValue
32.567

@<SCITEGIC>MOL_PROPERTY
U+W
SciTegic.value.DoubleValue
-4.848

@<SCITEGIC>MOL_PROPERTY
U
SciTegic.value.DoubleValue
48.698

@<SCITEGIC>MOL_PROPERTY
W
SciTegic.value.DoubleValue
-53.546

@<SCITEGIC>MOL_PROPERTY
W(PB)
SciTegic.value.DoubleValue
-55.872

@<SCITEGIC>MOL_PROPERTY
W(SA)
SciTegic.value.DoubleValue
2.327

@<SCITEGIC>MOL_PROPERTY
Valence
SciTegic.value.DoubleValue
2.792

@<SCITEGIC>MOL_PROPERTY
Coulomb
SciTegic.value.DoubleValue
45.121

@<SCITEGIC>MOL_PROPERTY
VdW
SciTegic.value.DoubleValue
0.785

@<SCITEGIC>MOL_PROPERTY
VdW6
SciTegic.value.DoubleValue
-6.973

@<SCITEGIC>MOL_PROPERTY
VdW12
SciTegic.value.DoubleValue
7.758

@<SCITEGIC>MOL_PROPERTY
Bond
SciTegic.value.DoubleValue
0.189

@<SCITEGIC>MOL_PROPERTY
Angle
SciTegic.value.DoubleValue
0.672

@<SCITEGIC>MOL_PROPERTY
Pdih
SciTegic.value.DoubleValue
1.931

@<SCITEGIC>MOL_PROPERTY
Idih
SciTegic.value.DoubleValue
0.000

@<SCITEGIC>MOL_PROPERTY
Tether
SciTegic.value.DoubleValue
0.000

@<TRIPOS>MOLECULE
guest-s14_vm2.mol2 : vm2 ligand conformer 20
          26          25           1
SMALL
USER_CHARGES
 
@<TRIPOS>ATOM
       1    C1      19.501839   19.781843   19.385278 C.3        1 MOL1        -0.2400
       2    H1      20.144541   19.240622   18.678708 H          1 MOL1         0.0971
       3    H2      18.499170   19.850442   18.943704 H          1 MOL1         0.0971
       4    H3      19.893743   20.801786   19.491880 H          1 MOL1         0.0971
       5    C2      19.448223   19.063098   20.750127 C.3        1 MOL1        -0.1385
       6    H4      19.025269   18.057723   20.615826 H          1 MOL1         0.0960
       7    H5      18.765597   19.610167   21.413744 H          1 MOL1         0.0960
       8    C3      20.850736   18.958123   21.394503 C.3        1 MOL1        -0.1409
       9    H6      21.535874   18.479258   20.681328 H          1 MOL1         0.0960
      10    H7      21.250886   19.964994   21.577051 H          1 MOL1         0.0960
      11    C4      20.868612   18.145319   22.712448 C.3        1 MOL1        -0.1409
      12    H8      21.913040   18.024458   23.031752 H          1 MOL1         0.0960
      13    H9      20.484490   17.133092   22.524938 H          1 MOL1         0.0960
      14    C5      20.065053   18.805974   23.858363 C.3        1 MOL1        -0.1409
      15    H10     20.415321   19.837336   23.997743 H          1 MOL1         0.0960
      16    H11     19.002517   18.861659   23.587540 H          1 MOL1         0.0960
      17    C6      20.206417   18.019177   25.182899 C.3        1 MOL1        -0.1450
      18    H12     21.260085   17.984806   25.490431 H          1 MOL1         0.0960
      19    H13     19.892569   16.979039   25.022881 H          1 MOL1         0.0960
      20    C7      19.357643   18.614787   26.322724 C.3        1 MOL1         0.0172
      21    H14     18.308434   18.655445   26.017911 H          1 MOL1         0.0934
      22    H15     19.431932   17.972041   27.204156 H          1 MOL1         0.0934
      23    N1      19.782477   20.010679   26.734658 N.4        1 MOL1        -0.5956
      24    H16     19.206726   20.372728   27.502617 H          1 MOL1         0.3624
      25    H17     19.701973   20.676285   25.959802 H          1 MOL1         0.3624
      26    H18     20.756321   20.033430   27.054252 H          1 MOL1         0.3624
@<TRIPOS>BOND
    1     1     2    1
    2     1     3    1
    3     1     4    1
    4     1     5    1
    5     5     6    1
    6     5     7    1
    7     5     8    1
    8     8     9    1
    9     8    10    1
   10     8    11    1
   11    11    12    1
   12    11    13    1
   13    11    14    1
   14    14    15    1
   15    14    16    1
   16    14    17    1
   17    17    18    1
   18    17    19    1
   19    17    20    1
   20    20    21    1
   21    20    22    1
   22    20    23    1
   23    23    24    1
   24    23    25    1
   25    23    26    1
@<TRIPOS>SUBSTRUCTURE
       1 MOL1            1 RESIDUE      1      MOL     
@<SCITEGIC>MOL_PROPERTY
VM2 Rank
SciTegic.value.IntegerValue
20

@<SCITEGIC>MOL_PROPERTY
Conf_Id
SciTegic.value.IntegerValue
1290

@<SCITEGIC>MOL_PROPERTY
Probability
SciTegic.value.DoubleValue
1.60

@<SCITEGIC>MOL_PROPERTY
Sum Probability
SciTegic.value.DoubleValue
56.24

@<SCITEGIC>MOL_PROPERTY
Delta G
SciTegic.value.DoubleValue
0.937

@<SCITEGIC>MOL_PROPERTY
G
SciTegic.value.DoubleValue
49.198

@<SCITEGIC>MOL_PROPERTY
E
SciTegic.value.DoubleValue
16.642

@<SCITEGIC>MOL_PROPERTY
-TS
SciTegic.value.DoubleValue
32.556

@<SCITEGIC>MOL_PROPERTY
U+W
SciTegic.value.DoubleValue
-4.820

@<SCITEGIC>MOL_PROPERTY
U
SciTegic.value.DoubleValue
48.735

@<SCITEGIC>MOL_PROPERTY
W
SciTegic.value.DoubleValue
-53.555

@<SCITEGIC>MOL_PROPERTY
W(PB)
SciTegic.value.DoubleValue
-55.891

@<SCITEGIC>MOL_PROPERTY
W(SA)
SciTegic.value.DoubleValue
2.336

@<SCITEGIC>MOL_PROPERTY
Valence
SciTegic.value.DoubleValue
2.803

@<SCITEGIC>MOL_PROPERTY
Coulomb
SciTegic.value.DoubleValue
45.123

@<SCITEGIC>MOL_PROPERTY
VdW
SciTegic.value.DoubleValue
0.809

@<SCITEGIC>MOL_PROPERTY
VdW6
SciTegic.value.DoubleValue
-6.953

@<SCITEGIC>MOL_PROPERTY
VdW12
SciTegic.value.DoubleValue
7.761

@<SCITEGIC>MOL_PROPERTY
Bond
SciTegic.value.DoubleValue
0.188

@<SCITEGIC>MOL_PROPERTY
Angle
SciTegic.value.DoubleValue
0.699

@<SCITEGIC>MOL_PROPERTY
Pdih
SciTegic.value.DoubleValue
1.917

@<SCITEGIC>MOL_PROPERTY
Idih
SciTegic.value.DoubleValue
0.000

@<SCITEGIC>MOL_PROPERTY
Tether
SciTegic.value.DoubleValue
0.000

@<TRIPOS>MOLECULE
guest-s14_vm2.mol2 : vm2 ligand conformer 21
          26          25           1
SMALL
USER_CHARGES
 
@<TRIPOS>ATOM
       1    C1      19.603330   19.849008   19.388779 C.3        1 MOL1        -0.2400
       2    H1      18.507598   19.886232   19.445560 H          1 MOL1         0.0971
       3    H2      19.953207   20.811107   18.992559 H          1 MOL1         0.0971
       4    H3      19.882184   19.067477   18.669977 H          1 MOL1         0.0971
       5    C2      20.221299   19.573821   20.776104 C.3        1 MOL1        -0.1385
       6    H4      19.954727   20.395689   21.453691 H          1 MOL1         0.0960
       7    H5      21.317082   19.571665   20.692661 H          1 MOL1         0.0960
       8    C3      19.738892   18.223718   21.357304 C.3        1 MOL1        -0.1409
       9    H6      18.648417   18.245964   21.489978 H          1 MOL1         0.0960
      10    H7      19.944054   17.427865   20.628010 H          1 MOL1         0.0960
      11    C4      20.417536   17.847279   22.697337 C.3        1 MOL1        -0.1409
      12    H8      21.506883   17.808181   22.559100 H          1 MOL1         0.0960
      13    H9      20.104851   16.830126   22.971236 H          1 MOL1         0.0960
      14    C5      20.071678   18.810196   23.858571 C.3        1 MOL1        -0.1409
      15    H10     20.449282   19.816826   23.635991 H          1 MOL1         0.0960
      16    H11     18.980241   18.889567   23.949608 H          1 MOL1         0.0960
      17    C6      20.677515   18.330168   25.198707 C.3        1 MOL1        -0.1450
      18    H12     21.763702   18.214397   25.085622 H          1 MOL1         0.0960
      19    H13     20.281996   17.338990   25.457745 H          1 MOL1         0.0960
      20    C7      20.409538   19.309343   26.357922 C.3        1 MOL1         0.0172
      21    H14     20.929827   18.961144   27.254371 H          1 MOL1         0.0934
      22    H15     20.797531   20.298779   26.101249 H          1 MOL1         0.0934
      23    N1      18.941210   19.455466   26.706276 N.4        1 MOL1        -0.5956
      24    H16     18.523770   18.559766   26.979214 H          1 MOL1         0.3624
      25    H17     18.397383   19.815153   25.915840 H          1 MOL1         0.3624
      26    H18     18.798259   20.103290   27.488720 H          1 MOL1         0.3624
@<TRIPOS>BOND
    1     1     2    1
    2     1     3    1
    3     1     4    1
    4     1     5    1
    5     5     6    1
    6     5     7    1
    7     5     8    1
    8     8     9    1
    9     8    10    1
   10     8    11    1
   11    11    12    1
   12    11    13    1
   13    11    14    1
   14    14    15    1
   15    14    16    1
   16    14    17    1
   17    17    18    1
   18    17    19    1
   19    17    20    1
   20    20    21    1
   21    20    22    1
   22    20    23    1
   23    23    24    1
   24    23    25    1
   25    23    26    1
@<TRIPOS>SUBSTRUCTURE
       1 MOL1            1 RESIDUE      1      MOL     
@<SCITEGIC>MOL_PROPERTY
VM2 Rank
SciTegic.value.IntegerValue
21

@<SCITEGIC>MOL_PROPERTY
Conf_Id
SciTegic.value.IntegerValue
778

@<SCITEGIC>MOL_PROPERTY
Probability
SciTegic.value.DoubleValue
1.56

@<SCITEGIC>MOL_PROPERTY
Sum Probability
SciTegic.value.DoubleValue
57.80

@<SCITEGIC>MOL_PROPERTY
Delta G
SciTegic.value.DoubleValue
0.951

@<SCITEGIC>MOL_PROPERTY
G
SciTegic.value.DoubleValue
49.213

@<SCITEGIC>MOL_PROPERTY
E
SciTegic.value.DoubleValue
16.656

@<SCITEGIC>MOL_PROPERTY
-TS
SciTegic.value.DoubleValue
32.557

@<SCITEGIC>MOL_PROPERTY
U+W
SciTegic.value.DoubleValue
-4.806

@<SCITEGIC>MOL_PROPERTY
U
SciTegic.value.DoubleValue
48.735

@<SCITEGIC>MOL_PROPERTY
W
SciTegic.value.DoubleValue
-53.541

@<SCITEGIC>MOL_PROPERTY
W(PB)
SciTegic.value.DoubleValue
-55.862

@<SCITEGIC>MOL_PROPERTY
W(SA)
SciTegic.value.DoubleValue
2.321

@<SCITEGIC>MOL_PROPERTY
Valence
SciTegic.value.DoubleValue
2.803

@<SCITEGIC>MOL_PROPERTY
Coulomb
SciTegic.value.DoubleValue
45.123

@<SCITEGIC>MOL_PROPERTY
VdW
SciTegic.value.DoubleValue
0.809

@<SCITEGIC>MOL_PROPERTY
VdW6
SciTegic.value.DoubleValue
-6.953

@<SCITEGIC>MOL_PROPERTY
VdW12
SciTegic.value.DoubleValue
7.762

@<SCITEGIC>MOL_PROPERTY
Bond
SciTegic.value.DoubleValue
0.188

@<SCITEGIC>MOL_PROPERTY
Angle
SciTegic.value.DoubleValue
0.699

@<SCITEGIC>MOL_PROPERTY
Pdih
SciTegic.value.DoubleValue
1.917

@<SCITEGIC>MOL_PROPERTY
Idih
SciTegic.value.DoubleValue
0.000

@<SCITEGIC>MOL_PROPERTY
Tether
SciTegic.value.DoubleValue
0.000

@<TRIPOS>MOLECULE
guest-s14_vm2.mol2 : vm2 ligand conformer 22
          26          25           1
SMALL
USER_CHARGES
 
@<TRIPOS>ATOM
       1    C1      20.770272   19.765855   19.472787 C.3        1 MOL1        -0.2400
       2    H1      20.425351   19.038849   18.725980 H          1 MOL1         0.0971
       3    H2      20.126824   20.653070   19.409011 H          1 MOL1         0.0971
       4    H3      21.789972   20.068803   19.201731 H          1 MOL1         0.0971
       5    C2      20.740745   19.160538   20.892294 C.3        1 MOL1        -0.1385
       6    H4      21.130370   19.901349   21.602883 H          1 MOL1         0.0960
       7    H5      21.415282   18.293888   20.932626 H          1 MOL1         0.0960
       8    C3      19.311503   18.729681   21.298509 C.3        1 MOL1        -0.1409
       9    H6      18.649500   19.606525   21.310516 H          1 MOL1         0.0960
      10    H7      18.911698   18.052676   20.530937 H          1 MOL1         0.0960
      11    C4      19.245572   18.010441   22.668320 C.3        1 MOL1        -0.1409
      12    H8      19.896888   17.125677   22.650715 H          1 MOL1         0.0960
      13    H9      18.222587   17.637150   22.814962 H          1 MOL1         0.0960
      14    C5      19.627622   18.917069   23.863108 C.3        1 MOL1        -0.1409
      15    H10     20.671863   19.238424   23.764004 H          1 MOL1         0.0960
      16    H11     19.009183   19.825217   23.846966 H          1 MOL1         0.0960
      17    C6      19.438898   18.190114   25.215721 C.3        1 MOL1        -0.1450
      18    H12     20.073924   17.294962   25.253659 H          1 MOL1         0.0960
      19    H13     18.400918   17.841661   25.300099 H          1 MOL1         0.0960
      20    C7      19.748807   19.092625   26.425662 C.3        1 MOL1         0.0172
      21    H14     19.123547   19.988677   26.386303 H          1 MOL1         0.0934
      22    H15     19.515418   18.554435   27.348399 H          1 MOL1         0.0934
      23    N1      21.197581   19.532677   26.504600 N.4        1 MOL1        -0.5956
      24    H16     21.474012   20.078795   25.682913 H          1 MOL1         0.3624
      25    H17     21.835632   18.732593   26.566207 H          1 MOL1         0.3624
      26    H18     21.372684   20.119324   27.327726 H          1 MOL1         0.3624
@<TRIPOS>BOND
    1     1     2    1
    2     1     3    1
    3     1     4    1
    4     1     5    1
    5     5     6    1
    6     5     7    1
    7     5     8    1
    8     8     9    1
    9     8    10    1
   10     8    11    1
   11    11    12    1
   12    11    13    1
   13    11    14    1
   14    14    15    1
   15    14    16    1
   16    14    17    1
   17    17    18    1
   18    17    19    1
   19    17    20    1
   20    20    21    1
   21    20    22    1
   22    20    23    1
   23    23    24    1
   24    23    25    1
   25    23    26    1
@<TRIPOS>SUBSTRUCTURE
       1 MOL1            1 RESIDUE      1      MOL     
@<SCITEGIC>MOL_PROPERTY
VM2 Rank
SciTegic.value.IntegerValue
22

@<SCITEGIC>MOL_PROPERTY
Conf_Id
SciTegic.value.IntegerValue
490

@<SCITEGIC>MOL_PROPERTY
Probability
SciTegic.value.DoubleValue
1.56

@<SCITEGIC>MOL_PROPERTY
Sum Probability
SciTegic.value.DoubleValue
59.36

@<SCITEGIC>MOL_PROPERTY
Delta G
SciTegic.value.DoubleValue
0.954

@<SCITEGIC>MOL_PROPERTY
G
SciTegic.value.DoubleValue
49.216

@<SCITEGIC>MOL_PROPERTY
E
SciTegic.value.DoubleValue
16.667

@<SCITEGIC>MOL_PROPERTY
-TS
SciTegic.value.DoubleValue
32.549

@<SCITEGIC>MOL_PROPERTY
U+W
SciTegic.value.DoubleValue
-4.795

@<SCITEGIC>MOL_PROPERTY
U
SciTegic.value.DoubleValue
48.945

@<SCITEGIC>MOL_PROPERTY
W
SciTegic.value.DoubleValue
-53.740

@<SCITEGIC>MOL_PROPERTY
W(PB)
SciTegic.value.DoubleValue
-56.051

@<SCITEGIC>MOL_PROPERTY
W(SA)
SciTegic.value.DoubleValue
2.311

@<SCITEGIC>MOL_PROPERTY
Valence
SciTegic.value.DoubleValue
2.802

@<SCITEGIC>MOL_PROPERTY
Coulomb
SciTegic.value.DoubleValue
45.335

@<SCITEGIC>MOL_PROPERTY
VdW
SciTegic.value.DoubleValue
0.807

@<SCITEGIC>MOL_PROPERTY
VdW6
SciTegic.value.DoubleValue
-6.962

@<SCITEGIC>MOL_PROPERTY
VdW12
SciTegic.value.DoubleValue
7.769

@<SCITEGIC>MOL_PROPERTY
Bond
SciTegic.value.DoubleValue
0.189

@<SCITEGIC>MOL_PROPERTY
Angle
SciTegic.value.DoubleValue
0.696

@<SCITEGIC>MOL_PROPERTY
Pdih
SciTegic.value.DoubleValue
1.917

@<SCITEGIC>MOL_PROPERTY
Idih
SciTegic.value.DoubleValue
0.000

@<SCITEGIC>MOL_PROPERTY
Tether
SciTegic.value.DoubleValue
0.000

@<TRIPOS>MOLECULE
guest-s14_vm2.mol2 : vm2 ligand conformer 23
          26          25           1
SMALL
USER_CHARGES
 
@<TRIPOS>ATOM
       1    C1      19.355729   19.320509   19.223872 C.3        1 MOL1        -0.2400
       2    H1      18.301847   19.102757   19.440999 H          1 MOL1         0.0971
       3    H2      19.485010   20.410672   19.215568 H          1 MOL1         0.0971
       4    H3      19.575966   18.947392   18.215249 H          1 MOL1         0.0971
       5    C2      20.284747   18.659643   20.264264 C.3        1 MOL1        -0.1385
       6    H4      21.331568   18.865866   20.000562 H          1 MOL1         0.0960
       7    H5      20.157205   17.568673   20.226170 H          1 MOL1         0.0960
       8    C3      19.996259   19.168469   21.694093 C.3        1 MOL1        -0.1409
       9    H6      20.127320   20.258848   21.727485 H          1 MOL1         0.0960
      10    H7      18.946058   18.964987   21.940294 H          1 MOL1         0.0960
      11    C4      20.924666   18.502913   22.738479 C.3        1 MOL1        -0.1409
      12    H8      21.969378   18.648435   22.430568 H          1 MOL1         0.0960
      13    H9      20.754743   17.417389   22.747702 H          1 MOL1         0.0960
      14    C5      20.754301   19.066869   24.170700 C.3        1 MOL1        -0.1409
      15    H10     21.538559   18.631824   24.804148 H          1 MOL1         0.0960
      16    H11     20.930643   20.151436   24.162277 H          1 MOL1         0.0960
      17    C6      19.366830   18.768610   24.792610 C.3        1 MOL1        -0.1450
      18    H12     19.172440   17.687953   24.779552 H          1 MOL1         0.0960
      19    H13     18.579942   19.237229   24.188808 H          1 MOL1         0.0960
      20    C7      19.236212   19.296873   26.234365 C.3        1 MOL1         0.0172
      21    H14     19.448159   20.369298   26.254181 H          1 MOL1         0.0934
      22    H15     18.211198   19.145650   26.583703 H          1 MOL1         0.0934
      23    N1      20.162256   18.615113   27.222618 N.4        1 MOL1        -0.5956
      24    H16     20.039094   18.979735   28.173514 H          1 MOL1         0.3624
      25    H17     21.147473   18.749631   26.975408 H          1 MOL1         0.3624
      26    H18     19.995632   17.604471   27.265734 H          1 MOL1         0.3624
@<TRIPOS>BOND
    1     1     2    1
    2     1     3    1
    3     1     4    1
    4     1     5    1
    5     5     6    1
    6     5     7    1
    7     5     8    1
    8     8     9    1
    9     8    10    1
   10     8    11    1
   11    11    12    1
   12    11    13    1
   13    11    14    1
   14    14    15    1
   15    14    16    1
   16    14    17    1
   17    17    18    1
   18    17    19    1
   19    17    20    1
   20    20    21    1
   21    20    22    1
   22    20    23    1
   23    23    24    1
   24    23    25    1
   25    23    26    1
@<TRIPOS>SUBSTRUCTURE
       1 MOL1            1 RESIDUE      1      MOL     
@<SCITEGIC>MOL_PROPERTY
VM2 Rank
SciTegic.value.IntegerValue
23

@<SCITEGIC>MOL_PROPERTY
Conf_Id
SciTegic.value.IntegerValue
1010

@<SCITEGIC>MOL_PROPERTY
Probability
SciTegic.value.DoubleValue
1.46

@<SCITEGIC>MOL_PROPERTY
Sum Probability
SciTegic.value.DoubleValue
60.82

@<SCITEGIC>MOL_PROPERTY
Delta G
SciTegic.value.DoubleValue
0.990

@<SCITEGIC>MOL_PROPERTY
G
SciTegic.value.DoubleValue
49.252

@<SCITEGIC>MOL_PROPERTY
E
SciTegic.value.DoubleValue
16.717

@<SCITEGIC>MOL_PROPERTY
-TS
SciTegic.value.DoubleValue
32.534

@<SCITEGIC>MOL_PROPERTY
U+W
SciTegic.value.DoubleValue
-4.744

@<SCITEGIC>MOL_PROPERTY
U
SciTegic.value.DoubleValue
48.583

@<SCITEGIC>MOL_PROPERTY
W
SciTegic.value.DoubleValue
-53.327

@<SCITEGIC>MOL_PROPERTY
W(PB)
SciTegic.value.DoubleValue
-55.653

@<SCITEGIC>MOL_PROPERTY
W(SA)
SciTegic.value.DoubleValue
2.326

@<SCITEGIC>MOL_PROPERTY
Valence
SciTegic.value.DoubleValue
2.825

@<SCITEGIC>MOL_PROPERTY
Coulomb
SciTegic.value.DoubleValue
44.916

@<SCITEGIC>MOL_PROPERTY
VdW
SciTegic.value.DoubleValue
0.842

@<SCITEGIC>MOL_PROPERTY
VdW6
SciTegic.value.DoubleValue
-6.929

@<SCITEGIC>MOL_PROPERTY
VdW12
SciTegic.value.DoubleValue
7.771

@<SCITEGIC>MOL_PROPERTY
Bond
SciTegic.value.DoubleValue
0.195

@<SCITEGIC>MOL_PROPERTY
Angle
SciTegic.value.DoubleValue
0.721

@<SCITEGIC>MOL_PROPERTY
Pdih
SciTegic.value.DoubleValue
1.909

@<SCITEGIC>MOL_PROPERTY
Idih
SciTegic.value.DoubleValue
0.000

@<SCITEGIC>MOL_PROPERTY
Tether
SciTegic.value.DoubleValue
0.000

@<TRIPOS>MOLECULE
guest-s14_vm2.mol2 : vm2 ligand conformer 24
          26          25           1
SMALL
USER_CHARGES
 
@<TRIPOS>ATOM
       1    C1      19.116990   18.675444   19.417505 C.3        1 MOL1        -0.2400
       2    H1      18.557767   19.618201   19.356501 H          1 MOL1         0.0971
       3    H2      19.954964   18.728506   18.710248 H          1 MOL1         0.0971
       4    H3      18.450905   17.866627   19.090122 H          1 MOL1         0.0971
       5    C2      19.618465   18.420372   20.854774 C.3        1 MOL1        -0.1385
       6    H4      20.147728   17.457912   20.890269 H          1 MOL1         0.0960
       7    H5      18.751951   18.332753   21.523372 H          1 MOL1         0.0960
       8    C3      20.556524   19.550804   21.340107 C.3        1 MOL1        -0.1409
       9    H6      21.371071   19.674697   20.613120 H          1 MOL1         0.0960
      10    H7      20.010535   20.504162   21.356000 H          1 MOL1         0.0960
      11    C4      21.179280   19.285748   22.732929 C.3        1 MOL1        -0.1409
      12    H8      21.917046   20.073674   22.938411 H          1 MOL1         0.0960
      13    H9      21.736971   18.339240   22.712187 H          1 MOL1         0.0960
      14    C5      20.140917   19.255597   23.880251 C.3        1 MOL1        -0.1409
      15    H10     19.550334   20.182115   23.864986 H          1 MOL1         0.0960
      16    H11     19.440361   18.426146   23.722888 H          1 MOL1         0.0960
      17    C6      20.819789   19.100960   25.261868 C.3        1 MOL1        -0.1450
      18    H12     21.543416   19.914468   25.405084 H          1 MOL1         0.0960
      19    H13     21.390962   18.163692   25.297716 H          1 MOL1         0.0960
      20    C7      19.812816   19.134925   26.427793 C.3        1 MOL1         0.0172
      21    H14     20.355840   19.108961   27.376483 H          1 MOL1         0.0934
      22    H15     19.237018   20.063599   26.390004 H          1 MOL1         0.0934
      23    N1      18.836218   17.975150   26.425774 N.4        1 MOL1        -0.5956
      24    H16     18.264321   17.961597   25.575727 H          1 MOL1         0.3624
      25    H17     18.190295   18.020322   27.221447 H          1 MOL1         0.3624
      26    H18     19.317805   17.071866   26.482253 H          1 MOL1         0.3624
@<TRIPOS>BOND
    1     1     2    1
    2     1     3    1
    3     1     4    1
    4     1     5    1
    5     5     6    1
    6     5     7    1
    7     5     8    1
    8     8     9    1
    9     8    10    1
   10     8    11    1
   11    11    12    1
   12    11    13    1
   13    11    14    1
   14    14    15    1
   15    14    16    1
   16    14    17    1
   17    17    18    1
   18    17    19    1
   19    17    20    1
   20    20    21    1
   21    20    22    1
   22    20    23    1
   23    23    24    1
   24    23    25    1
   25    23    26    1
@<TRIPOS>SUBSTRUCTURE
       1 MOL1            1 RESIDUE      1      MOL     
@<SCITEGIC>MOL_PROPERTY
VM2 Rank
SciTegic.value.IntegerValue
24

@<SCITEGIC>MOL_PROPERTY
Conf_Id
SciTegic.value.IntegerValue
1038

@<SCITEGIC>MOL_PROPERTY
Probability
SciTegic.value.DoubleValue
1.35

@<SCITEGIC>MOL_PROPERTY
Sum Probability
SciTegic.value.DoubleValue
62.17

@<SCITEGIC>MOL_PROPERTY
Delta G
SciTegic.value.DoubleValue
1.039

@<SCITEGIC>MOL_PROPERTY
G
SciTegic.value.DoubleValue
49.301

@<SCITEGIC>MOL_PROPERTY
E
SciTegic.value.DoubleValue
16.752

@<SCITEGIC>MOL_PROPERTY
-TS
SciTegic.value.DoubleValue
32.549

@<SCITEGIC>MOL_PROPERTY
U+W
SciTegic.value.DoubleValue
-4.710

@<SCITEGIC>MOL_PROPERTY
U
SciTegic.value.DoubleValue
48.945

@<SCITEGIC>MOL_PROPERTY
W
SciTegic.value.DoubleValue
-53.655

@<SCITEGIC>MOL_PROPERTY
W(PB)
SciTegic.value.DoubleValue
-55.989

@<SCITEGIC>MOL_PROPERTY
W(SA)
SciTegic.value.DoubleValue
2.334

@<SCITEGIC>MOL_PROPERTY
Valence
SciTegic.value.DoubleValue
2.802

@<SCITEGIC>MOL_PROPERTY
Coulomb
SciTegic.value.DoubleValue
45.335

@<SCITEGIC>MOL_PROPERTY
VdW
SciTegic.value.DoubleValue
0.807

@<SCITEGIC>MOL_PROPERTY
VdW6
SciTegic.value.DoubleValue
-6.962

@<SCITEGIC>MOL_PROPERTY
VdW12
SciTegic.value.DoubleValue
7.769

@<SCITEGIC>MOL_PROPERTY
Bond
SciTegic.value.DoubleValue
0.189

@<SCITEGIC>MOL_PROPERTY
Angle
SciTegic.value.DoubleValue
0.696

@<SCITEGIC>MOL_PROPERTY
Pdih
SciTegic.value.DoubleValue
1.917

@<SCITEGIC>MOL_PROPERTY
Idih
SciTegic.value.DoubleValue
0.000

@<SCITEGIC>MOL_PROPERTY
Tether
SciTegic.value.DoubleValue
0.000

@<TRIPOS>MOLECULE
guest-s14_vm2.mol2 : vm2 ligand conformer 25
          26          25           1
SMALL
USER_CHARGES
 
@<TRIPOS>ATOM
       1    C1      21.049751   20.067651   20.177318 C.3        1 MOL1        -0.2400
       2    H1      20.376633   20.934623   20.194544 H          1 MOL1         0.0971
       3    H2      21.715818   20.131433   21.046628 H          1 MOL1         0.0971
       4    H3      21.673889   20.145201   19.277666 H          1 MOL1         0.0971
       5    C2      20.251453   18.744196   20.168965 C.3        1 MOL1        -0.1385
       6    H4      20.946581   17.893118   20.183648 H          1 MOL1         0.0960
       7    H5      19.696791   18.671599   19.222984 H          1 MOL1         0.0960
       8    C3      19.249356   18.622013   21.342304 C.3        1 MOL1        -0.1409
       9    H6      18.544018   19.463921   21.311426 H          1 MOL1         0.0960
      10    H7      18.651076   17.712133   21.195722 H          1 MOL1         0.0960
      11    C4      19.929737   18.561862   22.731000 C.3        1 MOL1        -0.1409
      12    H8      20.476958   19.495344   22.912413 H          1 MOL1         0.0960
      13    H9      20.669381   17.749483   22.741222 H          1 MOL1         0.0960
      14    C5      18.899311   18.336575   23.863595 C.3        1 MOL1        -0.1409
      15    H10     18.174894   19.162837   23.875268 H          1 MOL1         0.0960
      16    H11     18.325408   17.423287   23.654034 H          1 MOL1         0.0960
      17    C6      19.551037   18.202162   25.259991 C.3        1 MOL1        -0.1450
      18    H12     20.258284   17.362047   25.257849 H          1 MOL1         0.0960
      19    H13     18.772435   17.955789   25.994170 H          1 MOL1         0.0960
      20    C7      20.274227   19.486920   25.705896 C.3        1 MOL1         0.0172
      21    H14     21.082088   19.718812   25.007152 H          1 MOL1         0.0934
      22    H15     19.570084   20.323323   25.708644 H          1 MOL1         0.0934
      23    N1      20.876129   19.377621   27.091932 N.4        1 MOL1        -0.5956
      24    H16     21.568622   18.623738   27.149490 H          1 MOL1         0.3624
      25    H17     20.163415   19.187646   27.804086 H          1 MOL1         0.3624
      26    H18     21.352502   20.242610   27.369865 H          1 MOL1         0.3624
@<TRIPOS>BOND
    1     1     2    1
    2     1     3    1
    3     1     4    1
    4     1     5    1
    5     5     6    1
    6     5     7    1
    7     5     8    1
    8     8     9    1
    9     8    10    1
   10     8    11    1
   11    11    12    1
   12    11    13    1
   13    11    14    1
   14    14    15    1
   15    14    16    1
   16    14    17    1
   17    17    18    1
   18    17    19    1
   19    17    20    1
   20    20    21    1
   21    20    22    1
   22    20    23    1
   23    23    24    1
   24    23    25    1
   25    23    26    1
@<TRIPOS>SUBSTRUCTURE
       1 MOL1            1 RESIDUE      1      MOL     
@<SCITEGIC>MOL_PROPERTY
VM2 Rank
SciTegic.value.IntegerValue
25

@<SCITEGIC>MOL_PROPERTY
Conf_Id
SciTegic.value.IntegerValue
136

@<SCITEGIC>MOL_PROPERTY
Probability
SciTegic.value.DoubleValue
1.32

@<SCITEGIC>MOL_PROPERTY
Sum Probability
SciTegic.value.DoubleValue
63.49

@<SCITEGIC>MOL_PROPERTY
Delta G
SciTegic.value.DoubleValue
1.053

@<SCITEGIC>MOL_PROPERTY
G
SciTegic.value.DoubleValue
49.314

@<SCITEGIC>MOL_PROPERTY
E
SciTegic.value.DoubleValue
16.753

@<SCITEGIC>MOL_PROPERTY
-TS
SciTegic.value.DoubleValue
32.561

@<SCITEGIC>MOL_PROPERTY
U+W
SciTegic.value.DoubleValue
-4.708

@<SCITEGIC>MOL_PROPERTY
U
SciTegic.value.DoubleValue
48.723

@<SCITEGIC>MOL_PROPERTY
W
SciTegic.value.DoubleValue
-53.432

@<SCITEGIC>MOL_PROPERTY
W(PB)
SciTegic.value.DoubleValue
-55.776

@<SCITEGIC>MOL_PROPERTY
W(SA)
SciTegic.value.DoubleValue
2.344

@<SCITEGIC>MOL_PROPERTY
Valence
SciTegic.value.DoubleValue
2.962

@<SCITEGIC>MOL_PROPERTY
Coulomb
SciTegic.value.DoubleValue
44.993

@<SCITEGIC>MOL_PROPERTY
VdW
SciTegic.value.DoubleValue
0.768

@<SCITEGIC>MOL_PROPERTY
VdW6
SciTegic.value.DoubleValue
-7.008

@<SCITEGIC>MOL_PROPERTY
VdW12
SciTegic.value.DoubleValue
7.776

@<SCITEGIC>MOL_PROPERTY
Bond
SciTegic.value.DoubleValue
0.188

@<SCITEGIC>MOL_PROPERTY
Angle
SciTegic.value.DoubleValue
0.756

@<SCITEGIC>MOL_PROPERTY
Pdih
SciTegic.value.DoubleValue
2.018

@<SCITEGIC>MOL_PROPERTY
Idih
SciTegic.value.DoubleValue
0.000

@<SCITEGIC>MOL_PROPERTY
Tether
SciTegic.value.DoubleValue
0.000

@<TRIPOS>MOLECULE
guest-s14_vm2.mol2 : vm2 ligand conformer 26
          26          25           1
SMALL
USER_CHARGES
 
@<TRIPOS>ATOM
       1    C1      20.128527   17.813344   19.841650 C.3        1 MOL1        -0.2400
       2    H1      19.072577   17.907307   19.556754 H          1 MOL1         0.0971
       3    H2      20.677459   17.427302   18.972985 H          1 MOL1         0.0971
       4    H3      20.204624   17.063863   20.639110 H          1 MOL1         0.0971
       5    C2      20.707801   19.175768   20.285490 C.3        1 MOL1        -0.1385
       6    H4      20.721629   19.853326   19.420318 H          1 MOL1         0.0960
       7    H5      21.755114   19.049347   20.593547 H          1 MOL1         0.0960
       8    C3      19.903413   19.844060   21.426586 C.3        1 MOL1        -0.1409
       9    H6      20.315511   20.847367   21.602356 H          1 MOL1         0.0960
      10    H7      18.862839   19.989297   21.105080 H          1 MOL1         0.0960
      11    C4      19.934174   19.046069   22.752159 C.3        1 MOL1        -0.1409
      12    H8      20.978263   18.855420   23.033819 H          1 MOL1         0.0960
      13    H9      19.457010   18.067638   22.609531 H          1 MOL1         0.0960
      14    C5      19.208903   19.801909   23.891377 C.3        1 MOL1        -0.1409
      15    H10     19.703194   20.766946   24.070191 H          1 MOL1         0.0960
      16    H11     18.182239   20.032625   23.574888 H          1 MOL1         0.0960
      17    C6      19.152202   18.999529   25.212582 C.3        1 MOL1        -0.1450
      18    H12     18.634491   18.045938   25.043364 H          1 MOL1         0.0960
      19    H13     18.551814   19.557932   25.943101 H          1 MOL1         0.0960
      20    C7      20.547818   18.732724   25.807045 C.3        1 MOL1         0.0172
      21    H14     21.141154   18.138890   25.107045 H          1 MOL1         0.0934
      22    H15     21.063007   19.682042   25.976650 H          1 MOL1         0.0934
      23    N1      20.498162   17.985597   27.124112 N.4        1 MOL1        -0.5956
      24    H16     19.976520   18.504378   27.838235 H          1 MOL1         0.3624
      25    H17     21.436713   17.818211   27.502915 H          1 MOL1         0.3624
      26    H18     20.047678   17.069703   27.027190 H          1 MOL1         0.3624
@<TRIPOS>BOND
    1     1     2    1
    2     1     3    1
    3     1     4    1
    4     1     5    1
    5     5     6    1
    6     5     7    1
    7     5     8    1
    8     8     9    1
    9     8    10    1
   10     8    11    1
   11    11    12    1
   12    11    13    1
   13    11    14    1
   14    14    15    1
   15    14    16    1
   16    14    17    1
   17    17    18    1
   18    17    19    1
   19    17    20    1
   20    20    21    1
   21    20    22    1
   22    20    23    1
   23    23    24    1
   24    23    25    1
   25    23    26    1
@<TRIPOS>SUBSTRUCTURE
       1 MOL1            1 RESIDUE      1      MOL     
@<SCITEGIC>MOL_PROPERTY
VM2 Rank
SciTegic.value.IntegerValue
26

@<SCITEGIC>MOL_PROPERTY
Conf_Id
SciTegic.value.IntegerValue
1221

@<SCITEGIC>MOL_PROPERTY
Probability
SciTegic.value.DoubleValue
1.26

@<SCITEGIC>MOL_PROPERTY
Sum Probability
SciTegic.value.DoubleValue
64.75

@<SCITEGIC>MOL_PROPERTY
Delta G
SciTegic.value.DoubleValue
1.080

@<SCITEGIC>MOL_PROPERTY
G
SciTegic.value.DoubleValue
49.341

@<SCITEGIC>MOL_PROPERTY
E
SciTegic.value.DoubleValue
16.778

@<SCITEGIC>MOL_PROPERTY
-TS
SciTegic.value.DoubleValue
32.563

@<SCITEGIC>MOL_PROPERTY
U+W
SciTegic.value.DoubleValue
-4.684

@<SCITEGIC>MOL_PROPERTY
U
SciTegic.value.DoubleValue
48.658

@<SCITEGIC>MOL_PROPERTY
W
SciTegic.value.DoubleValue
-53.342

@<SCITEGIC>MOL_PROPERTY
W(PB)
SciTegic.value.DoubleValue
-55.670

@<SCITEGIC>MOL_PROPERTY
W(SA)
SciTegic.value.DoubleValue
2.328

@<SCITEGIC>MOL_PROPERTY
Valence
SciTegic.value.DoubleValue
2.963

@<SCITEGIC>MOL_PROPERTY
Coulomb
SciTegic.value.DoubleValue
44.927

@<SCITEGIC>MOL_PROPERTY
VdW
SciTegic.value.DoubleValue
0.768

@<SCITEGIC>MOL_PROPERTY
VdW6
SciTegic.value.DoubleValue
-6.995

@<SCITEGIC>MOL_PROPERTY
VdW12
SciTegic.value.DoubleValue
7.762

@<SCITEGIC>MOL_PROPERTY
Bond
SciTegic.value.DoubleValue
0.186

@<SCITEGIC>MOL_PROPERTY
Angle
SciTegic.value.DoubleValue
0.758

@<SCITEGIC>MOL_PROPERTY
Pdih
SciTegic.value.DoubleValue
2.019

@<SCITEGIC>MOL_PROPERTY
Idih
SciTegic.value.DoubleValue
0.000

@<SCITEGIC>MOL_PROPERTY
Tether
SciTegic.value.DoubleValue
0.000

@<TRIPOS>MOLECULE
guest-s14_vm2.mol2 : vm2 ligand conformer 27
          26          25           1
SMALL
USER_CHARGES
 
@<TRIPOS>ATOM
       1    C1      18.853409   18.588305   19.736765 C.3        1 MOL1        -0.2400
       2    H1      18.703179   19.636760   19.447962 H          1 MOL1         0.0971
       3    H2      18.959901   17.997562   18.817681 H          1 MOL1         0.0971
       4    H3      17.949583   18.243729   20.255985 H          1 MOL1         0.0971
       5    C2      20.100985   18.432898   20.632047 C.3        1 MOL1        -0.1385
       6    H4      20.992056   18.752425   20.073667 H          1 MOL1         0.0960
       7    H5      20.244060   17.371070   20.876922 H          1 MOL1         0.0960
       8    C3      19.977217   19.255836   21.933442 C.3        1 MOL1        -0.1409
       9    H6      19.836951   20.316655   21.684075 H          1 MOL1         0.0960
      10    H7      19.079015   18.933406   22.476266 H          1 MOL1         0.0960
      11    C4      21.225082   19.096587   22.834678 C.3        1 MOL1        -0.1409
      12    H8      22.121296   19.352012   22.252526 H          1 MOL1         0.0960
      13    H9      21.342125   18.043228   23.122720 H          1 MOL1         0.0960
      14    C5      21.194638   19.992181   24.100233 C.3        1 MOL1        -0.1409
      15    H10     22.131516   19.848050   24.656054 H          1 MOL1         0.0960
      16    H11     21.184553   21.047454   23.794375 H          1 MOL1         0.0960
      17    C6      20.001795   19.733981   25.054191 C.3        1 MOL1        -0.1450
      18    H12     19.059718   20.004410   24.560494 H          1 MOL1         0.0960
      19    H13     20.094293   20.398151   25.923764 H          1 MOL1         0.0960
      20    C7      19.933038   18.274481   25.540742 C.3        1 MOL1         0.0172
      21    H14     19.799085   17.606642   24.685743 H          1 MOL1         0.0934
      22    H15     20.867704   18.009455   26.042244 H          1 MOL1         0.0934
      23    N1      18.794835   18.024732   26.508902 N.4        1 MOL1        -0.5956
      24    H16     17.882862   18.230193   26.088026 H          1 MOL1         0.3624
      25    H17     18.875975   18.603739   27.351125 H          1 MOL1         0.3624
      26    H18     18.766986   17.047664   26.820180 H          1 MOL1         0.3624
@<TRIPOS>BOND
    1     1     2    1
    2     1     3    1
    3     1     4    1
    4     1     5    1
    5     5     6    1
    6     5     7    1
    7     5     8    1
    8     8     9    1
    9     8    10    1
   10     8    11    1
   11    11    12    1
   12    11    13    1
   13    11    14    1
   14    14    15    1
   15    14    16    1
   16    14    17    1
   17    17    18    1
   18    17    19    1
   19    17    20    1
   20    20    21    1
   21    20    22    1
   22    20    23    1
   23    23    24    1
   24    23    25    1
   25    23    26    1
@<TRIPOS>SUBSTRUCTURE
       1 MOL1            1 RESIDUE      1      MOL     
@<SCITEGIC>MOL_PROPERTY
VM2 Rank
SciTegic.value.IntegerValue
27

@<SCITEGIC>MOL_PROPERTY
Conf_Id
SciTegic.value.IntegerValue
1178

@<SCITEGIC>MOL_PROPERTY
Probability
SciTegic.value.DoubleValue
1.24

@<SCITEGIC>MOL_PROPERTY
Sum Probability
SciTegic.value.DoubleValue
65.99

@<SCITEGIC>MOL_PROPERTY
Delta G
SciTegic.value.DoubleValue
1.087

@<SCITEGIC>MOL_PROPERTY
G
SciTegic.value.DoubleValue
49.349

@<SCITEGIC>MOL_PROPERTY
E
SciTegic.value.DoubleValue
16.659

@<SCITEGIC>MOL_PROPERTY
-TS
SciTegic.value.DoubleValue
32.690

@<SCITEGIC>MOL_PROPERTY
U+W
SciTegic.value.DoubleValue
-4.803

@<SCITEGIC>MOL_PROPERTY
U
SciTegic.value.DoubleValue
48.957

@<SCITEGIC>MOL_PROPERTY
W
SciTegic.value.DoubleValue
-53.760

@<SCITEGIC>MOL_PROPERTY
W(PB)
SciTegic.value.DoubleValue
-56.083

@<SCITEGIC>MOL_PROPERTY
W(SA)
SciTegic.value.DoubleValue
2.323

@<SCITEGIC>MOL_PROPERTY
Valence
SciTegic.value.DoubleValue
2.916

@<SCITEGIC>MOL_PROPERTY
Coulomb
SciTegic.value.DoubleValue
45.446

@<SCITEGIC>MOL_PROPERTY
VdW
SciTegic.value.DoubleValue
0.595

@<SCITEGIC>MOL_PROPERTY
VdW6
SciTegic.value.DoubleValue
-7.362

@<SCITEGIC>MOL_PROPERTY
VdW12
SciTegic.value.DoubleValue
7.957

@<SCITEGIC>MOL_PROPERTY
Bond
SciTegic.value.DoubleValue
0.196

@<SCITEGIC>MOL_PROPERTY
Angle
SciTegic.value.DoubleValue
0.889

@<SCITEGIC>MOL_PROPERTY
Pdih
SciTegic.value.DoubleValue
1.830

@<SCITEGIC>MOL_PROPERTY
Idih
SciTegic.value.DoubleValue
0.000

@<SCITEGIC>MOL_PROPERTY
Tether
SciTegic.value.DoubleValue
0.000

@<TRIPOS>MOLECULE
guest-s14_vm2.mol2 : vm2 ligand conformer 28
          26          25           1
SMALL
USER_CHARGES
 
@<TRIPOS>ATOM
       1    C1      20.938969   19.963715   19.806456 C.3        1 MOL1        -0.2400
       2    H1      21.482460   19.661182   18.901952 H          1 MOL1         0.0971
       3    H2      20.048412   20.523944   19.492951 H          1 MOL1         0.0971
       4    H3      21.586275   20.642068   20.377468 H          1 MOL1         0.0971
       5    C2      20.550123   18.729099   20.647081 C.3        1 MOL1        -0.1385
       6    H4      21.457811   18.171511   20.917470 H          1 MOL1         0.0960
       7    H5      19.932657   18.053794   20.038321 H          1 MOL1         0.0960
       8    C3      19.782369   19.127306   21.926987 C.3        1 MOL1        -0.1409
       9    H6      20.406058   19.808426   22.520684 H          1 MOL1         0.0960
      10    H7      18.874756   19.682128   21.652022 H          1 MOL1         0.0960
      11    C4      19.396553   17.890709   22.773586 C.3        1 MOL1        -0.1409
      12    H8      20.304638   17.358984   23.088040 H          1 MOL1         0.0960
      13    H9      18.837039   17.186189   22.142763 H          1 MOL1         0.0960
      14    C5      18.527038   18.232944   24.011109 C.3        1 MOL1        -0.1409
      15    H10     17.575989   18.667675   23.673813 H          1 MOL1         0.0960
      16    H11     18.265613   17.298557   24.526889 H          1 MOL1         0.0960
      17    C6      19.188259   19.197461   25.027017 C.3        1 MOL1        -0.1450
      18    H12     18.501476   19.347632   25.870587 H          1 MOL1         0.0960
      19    H13     19.332764   20.184532   24.569645 H          1 MOL1         0.0960
      20    C7      20.533189   18.670277   25.560723 C.3        1 MOL1         0.0172
      21    H14     20.386281   17.691888   26.026035 H          1 MOL1         0.0934
      22    H15     21.238954   18.556324   24.733750 H          1 MOL1         0.0934
      23    N1      21.164500   19.587488   26.588040 N.4        1 MOL1        -0.5956
      24    H16     22.058414   19.218330   26.930050 H          1 MOL1         0.3624
      25    H17     20.561663   19.715292   27.407445 H          1 MOL1         0.3624
      26    H18     21.353424   20.519088   26.204011 H          1 MOL1         0.3624
@<TRIPOS>BOND
    1     1     2    1
    2     1     3    1
    3     1     4    1
    4     1     5    1
    5     5     6    1
    6     5     7    1
    7     5     8    1
    8     8     9    1
    9     8    10    1
   10     8    11    1
   11    11    12    1
   12    11    13    1
   13    11    14    1
   14    14    15    1
   15    14    16    1
   16    14    17    1
   17    17    18    1
   18    17    19    1
   19    17    20    1
   20    20    21    1
   21    20    22    1
   22    20    23    1
   23    23    24    1
   24    23    25    1
   25    23    26    1
@<TRIPOS>SUBSTRUCTURE
       1 MOL1            1 RESIDUE      1      MOL     
@<SCITEGIC>MOL_PROPERTY
VM2 Rank
SciTegic.value.IntegerValue
28

@<SCITEGIC>MOL_PROPERTY
Conf_Id
SciTegic.value.IntegerValue
155

@<SCITEGIC>MOL_PROPERTY
Probability
SciTegic.value.DoubleValue
1.24

@<SCITEGIC>MOL_PROPERTY
Sum Probability
SciTegic.value.DoubleValue
67.23

@<SCITEGIC>MOL_PROPERTY
Delta G
SciTegic.value.DoubleValue
1.090

@<SCITEGIC>MOL_PROPERTY
G
SciTegic.value.DoubleValue
49.351

@<SCITEGIC>MOL_PROPERTY
E
SciTegic.value.DoubleValue
16.661

@<SCITEGIC>MOL_PROPERTY
-TS
SciTegic.value.DoubleValue
32.690

@<SCITEGIC>MOL_PROPERTY
U+W
SciTegic.value.DoubleValue
-4.801

@<SCITEGIC>MOL_PROPERTY
U
SciTegic.value.DoubleValue
48.957

@<SCITEGIC>MOL_PROPERTY
W
SciTegic.value.DoubleValue
-53.758

@<SCITEGIC>MOL_PROPERTY
W(PB)
SciTegic.value.DoubleValue
-56.077

@<SCITEGIC>MOL_PROPERTY
W(SA)
SciTegic.value.DoubleValue
2.319

@<SCITEGIC>MOL_PROPERTY
Valence
SciTegic.value.DoubleValue
2.916

@<SCITEGIC>MOL_PROPERTY
Coulomb
SciTegic.value.DoubleValue
45.446

@<SCITEGIC>MOL_PROPERTY
VdW
SciTegic.value.DoubleValue
0.595

@<SCITEGIC>MOL_PROPERTY
VdW6
SciTegic.value.DoubleValue
-7.362

@<SCITEGIC>MOL_PROPERTY
VdW12
SciTegic.value.DoubleValue
7.957

@<SCITEGIC>MOL_PROPERTY
Bond
SciTegic.value.DoubleValue
0.196

@<SCITEGIC>MOL_PROPERTY
Angle
SciTegic.value.DoubleValue
0.889

@<SCITEGIC>MOL_PROPERTY
Pdih
SciTegic.value.DoubleValue
1.830

@<SCITEGIC>MOL_PROPERTY
Idih
SciTegic.value.DoubleValue
0.000

@<SCITEGIC>MOL_PROPERTY
Tether
SciTegic.value.DoubleValue
0.000

@<TRIPOS>MOLECULE
guest-s14_vm2.mol2 : vm2 ligand conformer 29
          26          25           1
SMALL
USER_CHARGES
 
@<TRIPOS>ATOM
       1    C1      21.144546   18.482293   19.875735 C.3        1 MOL1        -0.2400
       2    H1      21.487643   19.497491   19.637653 H          1 MOL1         0.0971
       3    H2      21.765305   18.091486   20.691446 H          1 MOL1         0.0971
       4    H3      21.323166   17.852379   18.994692 H          1 MOL1         0.0971
       5    C2      19.644992   18.475871   20.249967 C.3        1 MOL1        -0.1385
       6    H4      19.334011   17.455055   20.512593 H          1 MOL1         0.0960
       7    H5      19.057980   18.757749   19.364666 H          1 MOL1         0.0960
       8    C3      19.295224   19.443576   21.406239 C.3        1 MOL1        -0.1409
       9    H6      19.586823   20.466075   21.129248 H          1 MOL1         0.0960
      10    H7      18.203701   19.456714   21.531728 H          1 MOL1         0.0960
      11    C4      19.953842   19.059094   22.752818 C.3        1 MOL1        -0.1409
      12    H8      21.046615   19.114603   22.662700 H          1 MOL1         0.0960
      13    H9      19.704489   18.016604   22.991228 H          1 MOL1         0.0960
      14    C5      19.492540   19.988785   23.900860 C.3        1 MOL1        -0.1409
      15    H10     19.699709   21.032208   23.625576 H          1 MOL1         0.0960
      16    H11     18.403651   19.911013   24.026826 H          1 MOL1         0.0960
      17    C6      20.190019   19.683142   25.247233 C.3        1 MOL1        -0.1450
      18    H12     19.879757   20.432628   25.987466 H          1 MOL1         0.0960
      19    H13     21.277170   19.786710   25.131595 H          1 MOL1         0.0960
      20    C7      19.857847   18.278184   25.783954 C.3        1 MOL1         0.0172
      21    H14     18.775592   18.175217   25.900195 H          1 MOL1         0.0934
      22    H15     20.202024   17.520235   25.075617 H          1 MOL1         0.0934
      23    N1      20.501989   17.988055   27.124193 N.4        1 MOL1        -0.5956
      24    H16     21.524701   18.042618   27.076489 H          1 MOL1         0.3624
      25    H17     20.268542   17.048616   27.463817 H          1 MOL1         0.3624
      26    H18     20.197818   18.650072   27.845600 H          1 MOL1         0.3624
@<TRIPOS>BOND
    1     1     2    1
    2     1     3    1
    3     1     4    1
    4     1     5    1
    5     5     6    1
    6     5     7    1
    7     5     8    1
    8     8     9    1
    9     8    10    1
   10     8    11    1
   11    11    12    1
   12    11    13    1
   13    11    14    1
   14    14    15    1
   15    14    16    1
   16    14    17    1
   17    17    18    1
   18    17    19    1
   19    17    20    1
   20    20    21    1
   21    20    22    1
   22    20    23    1
   23    23    24    1
   24    23    25    1
   25    23    26    1
@<TRIPOS>SUBSTRUCTURE
       1 MOL1            1 RESIDUE      1      MOL     
@<SCITEGIC>MOL_PROPERTY
VM2 Rank
SciTegic.value.IntegerValue
29

@<SCITEGIC>MOL_PROPERTY
Conf_Id
SciTegic.value.IntegerValue
1365

@<SCITEGIC>MOL_PROPERTY
Probability
SciTegic.value.DoubleValue
1.20

@<SCITEGIC>MOL_PROPERTY
Sum Probability
SciTegic.value.DoubleValue
68.43

@<SCITEGIC>MOL_PROPERTY
Delta G
SciTegic.value.DoubleValue
1.110

@<SCITEGIC>MOL_PROPERTY
G
SciTegic.value.DoubleValue
49.372

@<SCITEGIC>MOL_PROPERTY
E
SciTegic.value.DoubleValue
16.809

@<SCITEGIC>MOL_PROPERTY
-TS
SciTegic.value.DoubleValue
32.563

@<SCITEGIC>MOL_PROPERTY
U+W
SciTegic.value.DoubleValue
-4.653

@<SCITEGIC>MOL_PROPERTY
U
SciTegic.value.DoubleValue
48.658

@<SCITEGIC>MOL_PROPERTY
W
SciTegic.value.DoubleValue
-53.311

@<SCITEGIC>MOL_PROPERTY
W(PB)
SciTegic.value.DoubleValue
-55.637

@<SCITEGIC>MOL_PROPERTY
W(SA)
SciTegic.value.DoubleValue
2.326

@<SCITEGIC>MOL_PROPERTY
Valence
SciTegic.value.DoubleValue
2.963

@<SCITEGIC>MOL_PROPERTY
Coulomb
SciTegic.value.DoubleValue
44.927

@<SCITEGIC>MOL_PROPERTY
VdW
SciTegic.value.DoubleValue
0.768

@<SCITEGIC>MOL_PROPERTY
VdW6
SciTegic.value.DoubleValue
-6.995

@<SCITEGIC>MOL_PROPERTY
VdW12
SciTegic.value.DoubleValue
7.762

@<SCITEGIC>MOL_PROPERTY
Bond
SciTegic.value.DoubleValue
0.186

@<SCITEGIC>MOL_PROPERTY
Angle
SciTegic.value.DoubleValue
0.758

@<SCITEGIC>MOL_PROPERTY
Pdih
SciTegic.value.DoubleValue
2.019

@<SCITEGIC>MOL_PROPERTY
Idih
SciTegic.value.DoubleValue
0.000

@<SCITEGIC>MOL_PROPERTY
Tether
SciTegic.value.DoubleValue
0.000

@<TRIPOS>MOLECULE
guest-s14_vm2.mol2 : vm2 ligand conformer 30
          26          25           1
SMALL
USER_CHARGES
 
@<TRIPOS>ATOM
       1    C1      18.697278   18.515946   20.098725 C.3        1 MOL1        -0.2400
       2    H1      18.164320   19.475370   20.120784 H          1 MOL1         0.0971
       3    H2      18.422882   18.000931   19.168993 H          1 MOL1         0.0971
       4    H3      18.336832   17.902461   20.933667 H          1 MOL1         0.0971
       5    C2      20.226697   18.727941   20.168125 C.3        1 MOL1        -0.1385
       6    H4      20.555104   19.237897   19.251668 H          1 MOL1         0.0960
       7    H5      20.734924   17.753576   20.176515 H          1 MOL1         0.0960
       8    C3      20.677705   19.564213   21.390044 C.3        1 MOL1        -0.1409
       9    H6      21.755160   19.759638   21.299483 H          1 MOL1         0.0960
      10    H7      20.182720   20.544870   21.366207 H          1 MOL1         0.0960
      11    C4      20.401192   18.872894   22.746742 C.3        1 MOL1        -0.1409
      12    H8      20.856415   17.872939   22.747398 H          1 MOL1         0.0960
      13    H9      19.320467   18.732738   22.873788 H          1 MOL1         0.0960
      14    C5      20.960115   19.695682   23.932460 C.3        1 MOL1        -0.1409
      15    H10     22.034083   19.869146   23.777935 H          1 MOL1         0.0960
      16    H11     20.485166   20.686462   23.952532 H          1 MOL1         0.0960
      17    C6      20.762677   19.001163   25.300449 C.3        1 MOL1        -0.1450
      18    H12     21.260614   19.596566   26.077298 H          1 MOL1         0.0960
      19    H13     21.256629   18.020388   25.291113 H          1 MOL1         0.0960
      20    C7      19.277900   18.829811   25.672612 C.3        1 MOL1         0.0172
      21    H14     18.786104   19.806250   25.682472 H          1 MOL1         0.0934
      22    H15     18.780134   18.200693   24.930252 H          1 MOL1         0.0934
      23    N1      19.077437   18.191351   27.031843 N.4        1 MOL1        -0.5956
      24    H16     18.082952   18.086415   27.260692 H          1 MOL1         0.3624
      25    H17     19.498780   18.749166   27.781860 H          1 MOL1         0.3624
      26    H18     19.495150   17.256270   27.080187 H          1 MOL1         0.3624
@<TRIPOS>BOND
    1     1     2    1
    2     1     3    1
    3     1     4    1
    4     1     5    1
    5     5     6    1
    6     5     7    1
    7     5     8    1
    8     8     9    1
    9     8    10    1
   10     8    11    1
   11    11    12    1
   12    11    13    1
   13    11    14    1
   14    14    15    1
   15    14    16    1
   16    14    17    1
   17    17    18    1
   18    17    19    1
   19    17    20    1
   20    20    21    1
   21    20    22    1
   22    20    23    1
   23    23    24    1
   24    23    25    1
   25    23    26    1
@<TRIPOS>SUBSTRUCTURE
       1 MOL1            1 RESIDUE      1      MOL     
@<SCITEGIC>MOL_PROPERTY
VM2 Rank
SciTegic.value.IntegerValue
30

@<SCITEGIC>MOL_PROPERTY
Conf_Id
SciTegic.value.IntegerValue
964

@<SCITEGIC>MOL_PROPERTY
Probability
SciTegic.value.DoubleValue
1.18

@<SCITEGIC>MOL_PROPERTY
Sum Probability
SciTegic.value.DoubleValue
69.61

@<SCITEGIC>MOL_PROPERTY
Delta G
SciTegic.value.DoubleValue
1.120

@<SCITEGIC>MOL_PROPERTY
G
SciTegic.value.DoubleValue
49.382

@<SCITEGIC>MOL_PROPERTY
E
SciTegic.value.DoubleValue
16.822

@<SCITEGIC>MOL_PROPERTY
-TS
SciTegic.value.DoubleValue
32.560

@<SCITEGIC>MOL_PROPERTY
U+W
SciTegic.value.DoubleValue
-4.640

@<SCITEGIC>MOL_PROPERTY
U
SciTegic.value.DoubleValue
48.723

@<SCITEGIC>MOL_PROPERTY
W
SciTegic.value.DoubleValue
-53.363

@<SCITEGIC>MOL_PROPERTY
W(PB)
SciTegic.value.DoubleValue
-55.683

@<SCITEGIC>MOL_PROPERTY
W(SA)
SciTegic.value.DoubleValue
2.320

@<SCITEGIC>MOL_PROPERTY
Valence
SciTegic.value.DoubleValue
2.962

@<SCITEGIC>MOL_PROPERTY
Coulomb
SciTegic.value.DoubleValue
44.993

@<SCITEGIC>MOL_PROPERTY
VdW
SciTegic.value.DoubleValue
0.768

@<SCITEGIC>MOL_PROPERTY
VdW6
SciTegic.value.DoubleValue
-7.008

@<SCITEGIC>MOL_PROPERTY
VdW12
SciTegic.value.DoubleValue
7.776

@<SCITEGIC>MOL_PROPERTY
Bond
SciTegic.value.DoubleValue
0.188

@<SCITEGIC>MOL_PROPERTY
Angle
SciTegic.value.DoubleValue
0.756

@<SCITEGIC>MOL_PROPERTY
Pdih
SciTegic.value.DoubleValue
2.018

@<SCITEGIC>MOL_PROPERTY
Idih
SciTegic.value.DoubleValue
0.000

@<SCITEGIC>MOL_PROPERTY
Tether
SciTegic.value.DoubleValue
0.000

@<TRIPOS>MOLECULE
guest-s14_vm2.mol2 : vm2 ligand conformer 31
          26          25           1
SMALL
USER_CHARGES
 
@<TRIPOS>ATOM
       1    C1      19.488408   19.029992   19.218213 C.3        1 MOL1        -0.2400
       2    H1      19.938425   18.125700   18.788141 H          1 MOL1         0.0971
       3    H2      18.489140   19.149864   18.779886 H          1 MOL1         0.0971
       4    H3      20.095774   19.892296   18.913613 H          1 MOL1         0.0971
       5    C2      19.400517   18.929301   20.755864 C.3        1 MOL1        -0.1385
       6    H4      18.763565   18.076464   21.029112 H          1 MOL1         0.0960
       7    H5      18.909389   19.831336   21.144296 H          1 MOL1         0.0960
       8    C3      20.798587   18.763942   21.397132 C.3        1 MOL1        -0.1409
       9    H6      21.302012   17.901653   20.938475 H          1 MOL1         0.0960
      10    H7      21.418429   19.641150   21.165718 H          1 MOL1         0.0960
      11    C4      20.754834   18.548438   22.929839 C.3        1 MOL1        -0.1409
      12    H8      21.773432   18.329703   23.278998 H          1 MOL1         0.0960
      13    H9      20.153406   17.656784   23.152168 H          1 MOL1         0.0960
      14    C5      20.205795   19.770421   23.708872 C.3        1 MOL1        -0.1409
      15    H10     20.751477   20.672248   23.398778 H          1 MOL1         0.0960
      16    H11     19.151452   19.939495   23.453077 H          1 MOL1         0.0960
      17    C6      20.333845   19.615386   25.242462 C.3        1 MOL1        -0.1450
      18    H12     20.000495   20.544316   25.724029 H          1 MOL1         0.0960
      19    H13     21.389702   19.482236   25.513429 H          1 MOL1         0.0960
      20    C7      19.506048   18.438110   25.791054 C.3        1 MOL1         0.0172
      21    H14     18.454287   18.572000   25.524116 H          1 MOL1         0.0934
      22    H15     19.856992   17.501673   25.349826 H          1 MOL1         0.0934
      23    N1      19.592966   18.303410   27.297564 N.4        1 MOL1        -0.5956
      24    H16     19.250492   19.142707   27.776624 H          1 MOL1         0.3624
      25    H17     20.556295   18.148217   27.612382 H          1 MOL1         0.3624
      26    H18     19.035311   17.514454   27.642457 H          1 MOL1         0.3624
@<TRIPOS>BOND
    1     1     2    1
    2     1     3    1
    3     1     4    1
    4     1     5    1
    5     5     6    1
    6     5     7    1
    7     5     8    1
    8     8     9    1
    9     8    10    1
   10     8    11    1
   11    11    12    1
   12    11    13    1
   13    11    14    1
   14    14    15    1
   15    14    16    1
   16    14    17    1
   17    17    18    1
   18    17    19    1
   19    17    20    1
   20    20    21    1
   21    20    22    1
   22    20    23    1
   23    23    24    1
   24    23    25    1
   25    23    26    1
@<TRIPOS>SUBSTRUCTURE
       1 MOL1            1 RESIDUE      1      MOL     
@<SCITEGIC>MOL_PROPERTY
VM2 Rank
SciTegic.value.IntegerValue
31

@<SCITEGIC>MOL_PROPERTY
Conf_Id
SciTegic.value.IntegerValue
779

@<SCITEGIC>MOL_PROPERTY
Probability
SciTegic.value.DoubleValue
1.16

@<SCITEGIC>MOL_PROPERTY
Sum Probability
SciTegic.value.DoubleValue
70.76

@<SCITEGIC>MOL_PROPERTY
Delta G
SciTegic.value.DoubleValue
1.130

@<SCITEGIC>MOL_PROPERTY
G
SciTegic.value.DoubleValue
49.391

@<SCITEGIC>MOL_PROPERTY
E
SciTegic.value.DoubleValue
16.830

@<SCITEGIC>MOL_PROPERTY
-TS
SciTegic.value.DoubleValue
32.561

@<SCITEGIC>MOL_PROPERTY
U+W
SciTegic.value.DoubleValue
-4.632

@<SCITEGIC>MOL_PROPERTY
U
SciTegic.value.DoubleValue
48.732

@<SCITEGIC>MOL_PROPERTY
W
SciTegic.value.DoubleValue
-53.364

@<SCITEGIC>MOL_PROPERTY
W(PB)
SciTegic.value.DoubleValue
-55.694

@<SCITEGIC>MOL_PROPERTY
W(SA)
SciTegic.value.DoubleValue
2.329

@<SCITEGIC>MOL_PROPERTY
Valence
SciTegic.value.DoubleValue
2.986

@<SCITEGIC>MOL_PROPERTY
Coulomb
SciTegic.value.DoubleValue
45.003

@<SCITEGIC>MOL_PROPERTY
VdW
SciTegic.value.DoubleValue
0.742

@<SCITEGIC>MOL_PROPERTY
VdW6
SciTegic.value.DoubleValue
-7.035

@<SCITEGIC>MOL_PROPERTY
VdW12
SciTegic.value.DoubleValue
7.778

@<SCITEGIC>MOL_PROPERTY
Bond
SciTegic.value.DoubleValue
0.190

@<SCITEGIC>MOL_PROPERTY
Angle
SciTegic.value.DoubleValue
0.753

@<SCITEGIC>MOL_PROPERTY
Pdih
SciTegic.value.DoubleValue
2.043

@<SCITEGIC>MOL_PROPERTY
Idih
SciTegic.value.DoubleValue
0.000

@<SCITEGIC>MOL_PROPERTY
Tether
SciTegic.value.DoubleValue
0.000

@<TRIPOS>MOLECULE
guest-s14_vm2.mol2 : vm2 ligand conformer 32
          26          25           1
SMALL
USER_CHARGES
 
@<TRIPOS>ATOM
       1    C1      19.860976   19.087895   19.080455 C.3        1 MOL1        -0.2400
       2    H1      18.995953   19.760707   19.014852 H          1 MOL1         0.0971
       3    H2      20.748289   19.637444   18.740022 H          1 MOL1         0.0971
       4    H3      19.693646   18.254998   18.385238 H          1 MOL1         0.0971
       5    C2      20.049392   18.566053   20.520771 C.3        1 MOL1        -0.1385
       6    H4      20.902744   17.874155   20.548477 H          1 MOL1         0.0960
       7    H5      19.161048   17.988480   20.808327 H          1 MOL1         0.0960
       8    C3      20.282482   19.723741   21.520298 C.3        1 MOL1        -0.1409
       9    H6      21.123660   20.335373   21.165759 H          1 MOL1         0.0960
      10    H7      19.405156   20.385096   21.532945 H          1 MOL1         0.0960
      11    C4      20.596003   19.249077   22.960704 C.3        1 MOL1        -0.1409
      12    H8      20.879286   20.128485   23.553876 H          1 MOL1         0.0960
      13    H9      21.475175   18.590232   22.946713 H          1 MOL1         0.0960
      14    C5      19.409472   18.523989   23.645518 C.3        1 MOL1        -0.1409
      15    H10     18.523361   19.173740   23.638679 H          1 MOL1         0.0960
      16    H11     19.143151   17.627517   23.070978 H          1 MOL1         0.0960
      17    C6      19.720079   18.091420   25.097971 C.3        1 MOL1        -0.1450
      18    H12     20.600620   17.435250   25.107483 H          1 MOL1         0.0960
      19    H13     18.879958   17.495359   25.478591 H          1 MOL1         0.0960
      20    C7      19.953824   19.286994   26.040649 C.3        1 MOL1         0.0172
      21    H14     20.817943   19.863697   25.701228 H          1 MOL1         0.0934
      22    H15     19.077410   19.940579   26.030057 H          1 MOL1         0.0934
      23    N1      20.208772   18.869832   27.474633 N.4        1 MOL1        -0.5956
      24    H16     21.038205   18.272819   27.557227 H          1 MOL1         0.3624
      25    H17     19.419429   18.345583   27.866180 H          1 MOL1         0.3624
      26    H18     20.361626   19.679581   28.085646 H          1 MOL1         0.3624
@<TRIPOS>BOND
    1     1     2    1
    2     1     3    1
    3     1     4    1
    4     1     5    1
    5     5     6    1
    6     5     7    1
    7     5     8    1
    8     8     9    1
    9     8    10    1
   10     8    11    1
   11    11    12    1
   12    11    13    1
   13    11    14    1
   14    14    15    1
   15    14    16    1
   16    14    17    1
   17    17    18    1
   18    17    19    1
   19    17    20    1
   20    20    21    1
   21    20    22    1
   22    20    23    1
   23    23    24    1
   24    23    25    1
   25    23    26    1
@<TRIPOS>SUBSTRUCTURE
       1 MOL1            1 RESIDUE      1      MOL     
@<SCITEGIC>MOL_PROPERTY
VM2 Rank
SciTegic.value.IntegerValue
32

@<SCITEGIC>MOL_PROPERTY
Conf_Id
SciTegic.value.IntegerValue
725

@<SCITEGIC>MOL_PROPERTY
Probability
SciTegic.value.DoubleValue
1.13

@<SCITEGIC>MOL_PROPERTY
Sum Probability
SciTegic.value.DoubleValue
71.89

@<SCITEGIC>MOL_PROPERTY
Delta G
SciTegic.value.DoubleValue
1.147

@<SCITEGIC>MOL_PROPERTY
G
SciTegic.value.DoubleValue
49.408

@<SCITEGIC>MOL_PROPERTY
E
SciTegic.value.DoubleValue
16.887

@<SCITEGIC>MOL_PROPERTY
-TS
SciTegic.value.DoubleValue
32.521

@<SCITEGIC>MOL_PROPERTY
U+W
SciTegic.value.DoubleValue
-4.575

@<SCITEGIC>MOL_PROPERTY
U
SciTegic.value.DoubleValue
48.768

@<SCITEGIC>MOL_PROPERTY
W
SciTegic.value.DoubleValue
-53.342

@<SCITEGIC>MOL_PROPERTY
W(PB)
SciTegic.value.DoubleValue
-55.671

@<SCITEGIC>MOL_PROPERTY
W(SA)
SciTegic.value.DoubleValue
2.328

@<SCITEGIC>MOL_PROPERTY
Valence
SciTegic.value.DoubleValue
3.051

@<SCITEGIC>MOL_PROPERTY
Coulomb
SciTegic.value.DoubleValue
44.907

@<SCITEGIC>MOL_PROPERTY
VdW
SciTegic.value.DoubleValue
0.810

@<SCITEGIC>MOL_PROPERTY
VdW6
SciTegic.value.DoubleValue
-6.972

@<SCITEGIC>MOL_PROPERTY
VdW12
SciTegic.value.DoubleValue
7.782

@<SCITEGIC>MOL_PROPERTY
Bond
SciTegic.value.DoubleValue
0.197

@<SCITEGIC>MOL_PROPERTY
Angle
SciTegic.value.DoubleValue
0.815

@<SCITEGIC>MOL_PROPERTY
Pdih
SciTegic.value.DoubleValue
2.039

@<SCITEGIC>MOL_PROPERTY
Idih
SciTegic.value.DoubleValue
0.000

@<SCITEGIC>MOL_PROPERTY
Tether
SciTegic.value.DoubleValue
0.000

@<TRIPOS>MOLECULE
guest-s14_vm2.mol2 : vm2 ligand conformer 33
          26          25           1
SMALL
USER_CHARGES
 
@<TRIPOS>ATOM
       1    C1      20.308448   19.570534   19.245656 C.3        1 MOL1        -0.2400
       2    H1      20.981129   18.812987   18.822752 H          1 MOL1         0.0971
       3    H2      19.291701   19.363500   18.887043 H          1 MOL1         0.0971
       4    H3      20.612442   20.548695   18.850911 H          1 MOL1         0.0971
       5    C2      20.364299   19.564044   20.788084 C.3        1 MOL1        -0.1385
       6    H4      19.711764   20.359672   21.171388 H          1 MOL1         0.0960
       7    H5      21.385450   19.803026   21.116480 H          1 MOL1         0.0960
       8    C3      19.935643   18.195537   21.368272 C.3        1 MOL1        -0.1409
       9    H6      18.897004   17.980481   21.081516 H          1 MOL1         0.0960
      10    H7      20.550280   17.406544   20.913235 H          1 MOL1         0.0960
      11    C4      20.079446   18.103403   22.907227 C.3        1 MOL1        -0.1409
      12    H8      21.124436   18.296486   23.184545 H          1 MOL1         0.0960
      13    H9      19.863203   17.071032   23.215038 H          1 MOL1         0.0960
      14    C5      19.137284   19.066272   23.673252 C.3        1 MOL1        -0.1409
      15    H10     19.408699   20.108979   23.461715 H          1 MOL1         0.0960
      16    H11     18.108953   18.930932   23.310709 H          1 MOL1         0.0960
      17    C6      19.158062   18.840417   25.203249 C.3        1 MOL1        -0.1450
      18    H12     18.852574   17.809975   25.428759 H          1 MOL1         0.0960
      19    H13     18.413758   19.498447   25.671165 H          1 MOL1         0.0960
      20    C7      20.539140   19.118998   25.825503 C.3        1 MOL1         0.0172
      21    H14     21.281557   18.440619   25.397280 H          1 MOL1         0.0934
      22    H15     20.842134   20.145851   25.603804 H          1 MOL1         0.0934
      23    N1      20.558677   18.939795   27.329758 N.4        1 MOL1        -0.5956
      24    H16     20.307841   17.984257   27.604032 H          1 MOL1         0.3624
      25    H17     19.900334   19.570855   27.798323 H          1 MOL1         0.3624
      26    H18     21.486393   19.129913   27.724196 H          1 MOL1         0.3624
@<TRIPOS>BOND
    1     1     2    1
    2     1     3    1
    3     1     4    1
    4     1     5    1
    5     5     6    1
    6     5     7    1
    7     5     8    1
    8     8     9    1
    9     8    10    1
   10     8    11    1
   11    11    12    1
   12    11    13    1
   13    11    14    1
   14    14    15    1
   15    14    16    1
   16    14    17    1
   17    17    18    1
   18    17    19    1
   19    17    20    1
   20    20    21    1
   21    20    22    1
   22    20    23    1
   23    23    24    1
   24    23    25    1
   25    23    26    1
@<TRIPOS>SUBSTRUCTURE
       1 MOL1            1 RESIDUE      1      MOL     
@<SCITEGIC>MOL_PROPERTY
VM2 Rank
SciTegic.value.IntegerValue
33

@<SCITEGIC>MOL_PROPERTY
Conf_Id
SciTegic.value.IntegerValue
799

@<SCITEGIC>MOL_PROPERTY
Probability
SciTegic.value.DoubleValue
1.09

@<SCITEGIC>MOL_PROPERTY
Sum Probability
SciTegic.value.DoubleValue
72.98

@<SCITEGIC>MOL_PROPERTY
Delta G
SciTegic.value.DoubleValue
1.168

@<SCITEGIC>MOL_PROPERTY
G
SciTegic.value.DoubleValue
49.429

@<SCITEGIC>MOL_PROPERTY
E
SciTegic.value.DoubleValue
16.868

@<SCITEGIC>MOL_PROPERTY
-TS
SciTegic.value.DoubleValue
32.561

@<SCITEGIC>MOL_PROPERTY
U+W
SciTegic.value.DoubleValue
-4.594

@<SCITEGIC>MOL_PROPERTY
U
SciTegic.value.DoubleValue
48.732

@<SCITEGIC>MOL_PROPERTY
W
SciTegic.value.DoubleValue
-53.326

@<SCITEGIC>MOL_PROPERTY
W(PB)
SciTegic.value.DoubleValue
-55.661

@<SCITEGIC>MOL_PROPERTY
W(SA)
SciTegic.value.DoubleValue
2.334

@<SCITEGIC>MOL_PROPERTY
Valence
SciTegic.value.DoubleValue
2.987

@<SCITEGIC>MOL_PROPERTY
Coulomb
SciTegic.value.DoubleValue
45.003

@<SCITEGIC>MOL_PROPERTY
VdW
SciTegic.value.DoubleValue
0.742

@<SCITEGIC>MOL_PROPERTY
VdW6
SciTegic.value.DoubleValue
-7.035

@<SCITEGIC>MOL_PROPERTY
VdW12
SciTegic.value.DoubleValue
7.777

@<SCITEGIC>MOL_PROPERTY
Bond
SciTegic.value.DoubleValue
0.191

@<SCITEGIC>MOL_PROPERTY
Angle
SciTegic.value.DoubleValue
0.753

@<SCITEGIC>MOL_PROPERTY
Pdih
SciTegic.value.DoubleValue
2.043

@<SCITEGIC>MOL_PROPERTY
Idih
SciTegic.value.DoubleValue
0.000

@<SCITEGIC>MOL_PROPERTY
Tether
SciTegic.value.DoubleValue
0.000

@<TRIPOS>MOLECULE
guest-s14_vm2.mol2 : vm2 ligand conformer 34
          26          25           1
SMALL
USER_CHARGES
 
@<TRIPOS>ATOM
       1    C1      18.788188   18.680070   20.177677 C.3        1 MOL1        -0.2400
       2    H1      18.356879   18.245812   21.088223 H          1 MOL1         0.0971
       3    H2      17.974596   19.171202   19.628402 H          1 MOL1         0.0971
       4    H3      19.169633   17.861959   19.553062 H          1 MOL1         0.0971
       5    C2      19.906750   19.693615   20.509058 C.3        1 MOL1        -0.1385
       6    H4      19.506922   20.490555   21.150183 H          1 MOL1         0.0960
       7    H5      20.223412   20.187065   19.579591 H          1 MOL1         0.0960
       8    C3      21.149590   19.045702   21.171074 C.3        1 MOL1        -0.1409
       9    H6      21.603190   18.341337   20.460260 H          1 MOL1         0.0960
      10    H7      21.904468   19.824913   21.344669 H          1 MOL1         0.0960
      11    C4      20.878528   18.300929   22.503848 C.3        1 MOL1        -0.1409
      12    H8      21.826428   17.873650   22.858984 H          1 MOL1         0.0960
      13    H9      20.210793   17.447418   22.326636 H          1 MOL1         0.0960
      14    C5      20.288410   19.207421   23.610551 C.3        1 MOL1        -0.1409
      15    H10     20.936736   20.083121   23.752980 H          1 MOL1         0.0960
      16    H11     19.304964   19.584671   23.300182 H          1 MOL1         0.0960
      17    C6      20.138748   18.453710   24.950359 C.3        1 MOL1        -0.1450
      18    H12     21.118657   18.080720   25.277018 H          1 MOL1         0.0960
      19    H13     19.490273   17.578344   24.811414 H          1 MOL1         0.0960
      20    C7      19.546783   19.360797   26.043400 C.3        1 MOL1         0.0172
      21    H14     20.197792   20.225820   26.196352 H          1 MOL1         0.0934
      22    H15     18.563359   19.721421   25.729879 H          1 MOL1         0.0934
      23    N1      19.384003   18.656755   27.375032 N.4        1 MOL1        -0.5956
      24    H16     20.279881   18.316251   27.739311 H          1 MOL1         0.3624
      25    H17     18.759088   17.846908   27.305347 H          1 MOL1         0.3624
      26    H18     18.988487   19.278459   28.088816 H          1 MOL1         0.3624
@<TRIPOS>BOND
    1     1     2    1
    2     1     3    1
    3     1     4    1
    4     1     5    1
    5     5     6    1
    6     5     7    1
    7     5     8    1
    8     8     9    1
    9     8    10    1
   10     8    11    1
   11    11    12    1
   12    11    13    1
   13    11    14    1
   14    14    15    1
   15    14    16    1
   16    14    17    1
   17    17    18    1
   18    17    19    1
   19    17    20    1
   20    20    21    1
   21    20    22    1
   22    20    23    1
   23    23    24    1
   24    23    25    1
   25    23    26    1
@<TRIPOS>SUBSTRUCTURE
       1 MOL1            1 RESIDUE      1      MOL     
@<SCITEGIC>MOL_PROPERTY
VM2 Rank
SciTegic.value.IntegerValue
34

@<SCITEGIC>MOL_PROPERTY
Conf_Id
SciTegic.value.IntegerValue
220

@<SCITEGIC>MOL_PROPERTY
Probability
SciTegic.value.DoubleValue
1.04

@<SCITEGIC>MOL_PROPERTY
Sum Probability
SciTegic.value.DoubleValue
74.02

@<SCITEGIC>MOL_PROPERTY
Delta G
SciTegic.value.DoubleValue
1.196

@<SCITEGIC>MOL_PROPERTY
G
SciTegic.value.DoubleValue
49.458

@<SCITEGIC>MOL_PROPERTY
E
SciTegic.value.DoubleValue
16.676

@<SCITEGIC>MOL_PROPERTY
-TS
SciTegic.value.DoubleValue
32.782

@<SCITEGIC>MOL_PROPERTY
U+W
SciTegic.value.DoubleValue
-4.786

@<SCITEGIC>MOL_PROPERTY
U
SciTegic.value.DoubleValue
48.494

@<SCITEGIC>MOL_PROPERTY
W
SciTegic.value.DoubleValue
-53.279

@<SCITEGIC>MOL_PROPERTY
W(PB)
SciTegic.value.DoubleValue
-55.569

@<SCITEGIC>MOL_PROPERTY
W(SA)
SciTegic.value.DoubleValue
2.290

@<SCITEGIC>MOL_PROPERTY
Valence
SciTegic.value.DoubleValue
3.117

@<SCITEGIC>MOL_PROPERTY
Coulomb
SciTegic.value.DoubleValue
44.693

@<SCITEGIC>MOL_PROPERTY
VdW
SciTegic.value.DoubleValue
0.684

@<SCITEGIC>MOL_PROPERTY
VdW6
SciTegic.value.DoubleValue
-7.347

@<SCITEGIC>MOL_PROPERTY
VdW12
SciTegic.value.DoubleValue
8.030

@<SCITEGIC>MOL_PROPERTY
Bond
SciTegic.value.DoubleValue
0.208

@<SCITEGIC>MOL_PROPERTY
Angle
SciTegic.value.DoubleValue
1.039

@<SCITEGIC>MOL_PROPERTY
Pdih
SciTegic.value.DoubleValue
1.870

@<SCITEGIC>MOL_PROPERTY
Idih
SciTegic.value.DoubleValue
0.000

@<SCITEGIC>MOL_PROPERTY
Tether
SciTegic.value.DoubleValue
0.000

@<TRIPOS>MOLECULE
guest-s14_vm2.mol2 : vm2 ligand conformer 35
          26          25           1
SMALL
USER_CHARGES
 
@<TRIPOS>ATOM
       1    C1      20.859183   20.046691   20.246679 C.3        1 MOL1        -0.2400
       2    H1      21.385138   20.243882   21.189116 H          1 MOL1         0.0971
       3    H2      21.490077   19.393311   19.630223 H          1 MOL1         0.0971
       4    H3      20.752572   21.004438   19.721131 H          1 MOL1         0.0971
       5    C2      19.473933   19.408035   20.494609 C.3        1 MOL1        -0.1385
       6    H4      18.939501   19.339961   19.536786 H          1 MOL1         0.0960
       7    H5      18.868883   20.069502   21.128953 H          1 MOL1         0.0960
       8    C3      19.550981   17.990796   21.117666 C.3        1 MOL1        -0.1409
       9    H6      18.530992   17.598749   21.231972 H          1 MOL1         0.0960
      10    H7      20.053257   17.318559   20.408471 H          1 MOL1         0.0960
      11    C4      20.279533   17.905672   22.483837 C.3        1 MOL1        -0.1409
      12    H8      21.333764   18.188570   22.364165 H          1 MOL1         0.0960
      13    H9      20.283868   16.855681   22.807417 H          1 MOL1         0.0960
      14    C5      19.626636   18.770707   23.588464 C.3        1 MOL1        -0.1409
      15    H10     19.680182   19.832288   23.312796 H          1 MOL1         0.0960
      16    H11     18.561233   18.515495   23.673582 H          1 MOL1         0.0960
      17    C6      20.315393   18.570257   24.956309 C.3        1 MOL1        -0.1450
      18    H12     21.380393   18.825602   24.874667 H          1 MOL1         0.0960
      19    H13     20.258533   17.513108   25.248294 H          1 MOL1         0.0960
      20    C7      19.663327   19.437685   26.047339 C.3        1 MOL1         0.0172
      21    H14     19.732272   20.492784   25.768989 H          1 MOL1         0.0934
      22    H15     18.606194   19.175475   26.143196 H          1 MOL1         0.0934
      23    N1      20.312013   19.269157   27.406097 N.4        1 MOL1        -0.5956
      24    H16     20.256537   18.300856   27.738592 H          1 MOL1         0.3624
      25    H17     19.862743   19.855400   28.118073 H          1 MOL1         0.3624
      26    H18     21.304350   19.526547   27.390465 H          1 MOL1         0.3624
@<TRIPOS>BOND
    1     1     2    1
    2     1     3    1
    3     1     4    1
    4     1     5    1
    5     5     6    1
    6     5     7    1
    7     5     8    1
    8     8     9    1
    9     8    10    1
   10     8    11    1
   11    11    12    1
   12    11    13    1
   13    11    14    1
   14    14    15    1
   15    14    16    1
   16    14    17    1
   17    17    18    1
   18    17    19    1
   19    17    20    1
   20    20    21    1
   21    20    22    1
   22    20    23    1
   23    23    24    1
   24    23    25    1
   25    23    26    1
@<TRIPOS>SUBSTRUCTURE
       1 MOL1            1 RESIDUE      1      MOL     
@<SCITEGIC>MOL_PROPERTY
VM2 Rank
SciTegic.value.IntegerValue
35

@<SCITEGIC>MOL_PROPERTY
Conf_Id
SciTegic.value.IntegerValue
459

@<SCITEGIC>MOL_PROPERTY
Probability
SciTegic.value.DoubleValue
0.98

@<SCITEGIC>MOL_PROPERTY
Sum Probability
SciTegic.value.DoubleValue
74.99

@<SCITEGIC>MOL_PROPERTY
Delta G
SciTegic.value.DoubleValue
1.232

@<SCITEGIC>MOL_PROPERTY
G
SciTegic.value.DoubleValue
49.493

@<SCITEGIC>MOL_PROPERTY
E
SciTegic.value.DoubleValue
16.712

@<SCITEGIC>MOL_PROPERTY
-TS
SciTegic.value.DoubleValue
32.782

@<SCITEGIC>MOL_PROPERTY
U+W
SciTegic.value.DoubleValue
-4.750

@<SCITEGIC>MOL_PROPERTY
U
SciTegic.value.DoubleValue
48.494

@<SCITEGIC>MOL_PROPERTY
W
SciTegic.value.DoubleValue
-53.243

@<SCITEGIC>MOL_PROPERTY
W(PB)
SciTegic.value.DoubleValue
-55.524

@<SCITEGIC>MOL_PROPERTY
W(SA)
SciTegic.value.DoubleValue
2.281

@<SCITEGIC>MOL_PROPERTY
Valence
SciTegic.value.DoubleValue
3.117

@<SCITEGIC>MOL_PROPERTY
Coulomb
SciTegic.value.DoubleValue
44.693

@<SCITEGIC>MOL_PROPERTY
VdW
SciTegic.value.DoubleValue
0.684

@<SCITEGIC>MOL_PROPERTY
VdW6
SciTegic.value.DoubleValue
-7.346

@<SCITEGIC>MOL_PROPERTY
VdW12
SciTegic.value.DoubleValue
8.030

@<SCITEGIC>MOL_PROPERTY
Bond
SciTegic.value.DoubleValue
0.208

@<SCITEGIC>MOL_PROPERTY
Angle
SciTegic.value.DoubleValue
1.039

@<SCITEGIC>MOL_PROPERTY
Pdih
SciTegic.value.DoubleValue
1.870

@<SCITEGIC>MOL_PROPERTY
Idih
SciTegic.value.DoubleValue
0.000

@<SCITEGIC>MOL_PROPERTY
Tether
SciTegic.value.DoubleValue
0.000

@<TRIPOS>MOLECULE
guest-s14_vm2.mol2 : vm2 ligand conformer 36
          26          25           1
SMALL
USER_CHARGES
 
@<TRIPOS>ATOM
       1    C1      19.732171   17.949758   19.744141 C.3        1 MOL1        -0.2400
       2    H1      20.040717   16.991116   20.180961 H          1 MOL1         0.0971
       3    H2      18.683523   18.128512   20.012388 H          1 MOL1         0.0971
       4    H3      19.781507   17.852443   18.651886 H          1 MOL1         0.0971
       5    C2      20.645035   19.099784   20.226596 C.3        1 MOL1        -0.1385
       6    H4      20.300171   20.050504   19.796543 H          1 MOL1         0.0960
       7    H5      21.658976   18.935609   19.835765 H          1 MOL1         0.0960
       8    C3      20.719350   19.218433   21.767965 C.3        1 MOL1        -0.1409
       9    H6      21.094519   18.273460   22.182288 H          1 MOL1         0.0960
      10    H7      21.461423   19.987245   22.023653 H          1 MOL1         0.0960
      11    C4      19.362856   19.585768   22.420985 C.3        1 MOL1        -0.1409
      12    H8      18.642970   18.768926   22.278836 H          1 MOL1         0.0960
      13    H9      18.943649   20.461634   21.906925 H          1 MOL1         0.0960
      14    C5      19.473542   19.909032   23.931286 C.3        1 MOL1        -0.1409
      15    H10     20.171839   20.744515   24.079252 H          1 MOL1         0.0960
      16    H11     18.494177   20.259703   24.285628 H          1 MOL1         0.0960
      17    C6      19.915900   18.701338   24.790462 C.3        1 MOL1        -0.1450
      18    H12     20.927077   18.384826   24.505186 H          1 MOL1         0.0960
      19    H13     19.245723   17.851165   24.606140 H          1 MOL1         0.0960
      20    C7      19.903256   19.046428   26.290047 C.3        1 MOL1         0.0172
      21    H14     20.581531   19.882447   26.481055 H          1 MOL1         0.0934
      22    H15     18.895425   19.345507   26.590519 H          1 MOL1         0.0934
      23    N1      20.328891   17.888458   27.169519 N.4        1 MOL1        -0.5956
      24    H16     20.312865   18.139677   28.164042 H          1 MOL1         0.3624
      25    H17     21.281894   17.576377   26.956030 H          1 MOL1         0.3624
      26    H18     19.712900   17.076593   27.057029 H          1 MOL1         0.3624
@<TRIPOS>BOND
    1     1     2    1
    2     1     3    1
    3     1     4    1
    4     1     5    1
    5     5     6    1
    6     5     7    1
    7     5     8    1
    8     8     9    1
    9     8    10    1
   10     8    11    1
   11    11    12    1
   12    11    13    1
   13    11    14    1
   14    14    15    1
   15    14    16    1
   16    14    17    1
   17    17    18    1
   18    17    19    1
   19    17    20    1
   20    20    21    1
   21    20    22    1
   22    20    23    1
   23    23    24    1
   24    23    25    1
   25    23    26    1
@<TRIPOS>SUBSTRUCTURE
       1 MOL1            1 RESIDUE      1      MOL     
@<SCITEGIC>MOL_PROPERTY
VM2 Rank
SciTegic.value.IntegerValue
36

@<SCITEGIC>MOL_PROPERTY
Conf_Id
SciTegic.value.IntegerValue
1046

@<SCITEGIC>MOL_PROPERTY
Probability
SciTegic.value.DoubleValue
0.94

@<SCITEGIC>MOL_PROPERTY
Sum Probability
SciTegic.value.DoubleValue
75.94

@<SCITEGIC>MOL_PROPERTY
Delta G
SciTegic.value.DoubleValue
1.252

@<SCITEGIC>MOL_PROPERTY
G
SciTegic.value.DoubleValue
49.513

@<SCITEGIC>MOL_PROPERTY
E
SciTegic.value.DoubleValue
16.924

@<SCITEGIC>MOL_PROPERTY
-TS
SciTegic.value.DoubleValue
32.590

@<SCITEGIC>MOL_PROPERTY
U+W
SciTegic.value.DoubleValue
-4.538

@<SCITEGIC>MOL_PROPERTY
U
SciTegic.value.DoubleValue
48.768

@<SCITEGIC>MOL_PROPERTY
W
SciTegic.value.DoubleValue
-53.307

@<SCITEGIC>MOL_PROPERTY
W(PB)
SciTegic.value.DoubleValue
-55.645

@<SCITEGIC>MOL_PROPERTY
W(SA)
SciTegic.value.DoubleValue
2.338

@<SCITEGIC>MOL_PROPERTY
Valence
SciTegic.value.DoubleValue
3.172

@<SCITEGIC>MOL_PROPERTY
Coulomb
SciTegic.value.DoubleValue
44.790

@<SCITEGIC>MOL_PROPERTY
VdW
SciTegic.value.DoubleValue
0.805

@<SCITEGIC>MOL_PROPERTY
VdW6
SciTegic.value.DoubleValue
-7.080

@<SCITEGIC>MOL_PROPERTY
VdW12
SciTegic.value.DoubleValue
7.886

@<SCITEGIC>MOL_PROPERTY
Bond
SciTegic.value.DoubleValue
0.203

@<SCITEGIC>MOL_PROPERTY
Angle
SciTegic.value.DoubleValue
0.850

@<SCITEGIC>MOL_PROPERTY
Pdih
SciTegic.value.DoubleValue
2.120

@<SCITEGIC>MOL_PROPERTY
Idih
SciTegic.value.DoubleValue
0.000

@<SCITEGIC>MOL_PROPERTY
Tether
SciTegic.value.DoubleValue
0.000

@<TRIPOS>MOLECULE
guest-s14_vm2.mol2 : vm2 ligand conformer 37
          26          25           1
SMALL
USER_CHARGES
 
@<TRIPOS>ATOM
       1    C1      20.668279   20.261659   19.990646 C.3        1 MOL1        -0.2400
       2    H1      21.624999   20.554206   20.442648 H          1 MOL1         0.0971
       3    H2      20.880718   19.620699   19.125054 H          1 MOL1         0.0971
       4    H3      20.176827   21.171802   19.623049 H          1 MOL1         0.0971
       5    C2      19.771342   19.533503   21.014034 C.3        1 MOL1        -0.1385
       6    H4      18.811508   19.280106   20.542700 H          1 MOL1         0.0960
       7    H5      19.548694   20.218269   21.843148 H          1 MOL1         0.0960
       8    C3      20.445005   18.248437   21.550190 C.3        1 MOL1        -0.1409
       9    H6      20.726924   17.612518   20.699683 H          1 MOL1         0.0960
      10    H7      21.384416   18.505175   22.057260 H          1 MOL1         0.0960
      11    C4      19.538568   17.420412   22.497580 C.3        1 MOL1        -0.1409
      12    H8      20.081214   16.514734   22.801696 H          1 MOL1         0.0960
      13    H9      18.662415   17.069921   21.934790 H          1 MOL1         0.0960
      14    C5      19.049329   18.163118   23.767965 C.3        1 MOL1        -0.1409
      15    H10     18.399839   19.002582   23.486262 H          1 MOL1         0.0960
      16    H11     18.417807   17.475983   24.348151 H          1 MOL1         0.0960
      17    C6      20.198516   18.670560   24.670076 C.3        1 MOL1        -0.1450
      18    H12     20.795524   19.419542   24.134487 H          1 MOL1         0.0960
      19    H13     20.869313   17.837252   24.917984 H          1 MOL1         0.0960
      20    C7      19.657549   19.295825   25.967822 C.3        1 MOL1         0.0172
      21    H14     19.001448   20.136302   25.725783 H          1 MOL1         0.0934
      22    H15     19.075515   18.552782   26.519704 H          1 MOL1         0.0934
      23    N1      20.752412   19.805485   26.882687 N.4        1 MOL1        -0.5956
      24    H16     20.370338   20.217273   27.741097 H          1 MOL1         0.3624
      25    H17     21.321127   20.529668   26.431837 H          1 MOL1         0.3624
      26    H18     21.390138   19.055760   27.169791 H          1 MOL1         0.3624
@<TRIPOS>BOND
    1     1     2    1
    2     1     3    1
    3     1     4    1
    4     1     5    1
    5     5     6    1
    6     5     7    1
    7     5     8    1
    8     8     9    1
    9     8    10    1
   10     8    11    1
   11    11    12    1
   12    11    13    1
   13    11    14    1
   14    14    15    1
   15    14    16    1
   16    14    17    1
   17    17    18    1
   18    17    19    1
   19    17    20    1
   20    20    21    1
   21    20    22    1
   22    20    23    1
   23    23    24    1
   24    23    25    1
   25    23    26    1
@<TRIPOS>SUBSTRUCTURE
       1 MOL1            1 RESIDUE      1      MOL     
@<SCITEGIC>MOL_PROPERTY
VM2 Rank
SciTegic.value.IntegerValue
37

@<SCITEGIC>MOL_PROPERTY
Conf_Id
SciTegic.value.IntegerValue
811

@<SCITEGIC>MOL_PROPERTY
Probability
SciTegic.value.DoubleValue
0.93

@<SCITEGIC>MOL_PROPERTY
Sum Probability
SciTegic.value.DoubleValue
76.87

@<SCITEGIC>MOL_PROPERTY
Delta G
SciTegic.value.DoubleValue
1.261

@<SCITEGIC>MOL_PROPERTY
G
SciTegic.value.DoubleValue
49.523

@<SCITEGIC>MOL_PROPERTY
E
SciTegic.value.DoubleValue
16.728

@<SCITEGIC>MOL_PROPERTY
-TS
SciTegic.value.DoubleValue
32.795

@<SCITEGIC>MOL_PROPERTY
U+W
SciTegic.value.DoubleValue
-4.734

@<SCITEGIC>MOL_PROPERTY
U
SciTegic.value.DoubleValue
48.910

@<SCITEGIC>MOL_PROPERTY
W
SciTegic.value.DoubleValue
-53.645

@<SCITEGIC>MOL_PROPERTY
W(PB)
SciTegic.value.DoubleValue
-55.958

@<SCITEGIC>MOL_PROPERTY
W(SA)
SciTegic.value.DoubleValue
2.314

@<SCITEGIC>MOL_PROPERTY
Valence
SciTegic.value.DoubleValue
3.149

@<SCITEGIC>MOL_PROPERTY
Coulomb
SciTegic.value.DoubleValue
45.131

@<SCITEGIC>MOL_PROPERTY
VdW
SciTegic.value.DoubleValue
0.630

@<SCITEGIC>MOL_PROPERTY
VdW6
SciTegic.value.DoubleValue
-7.453

@<SCITEGIC>MOL_PROPERTY
VdW12
SciTegic.value.DoubleValue
8.083

@<SCITEGIC>MOL_PROPERTY
Bond
SciTegic.value.DoubleValue
0.212

@<SCITEGIC>MOL_PROPERTY
Angle
SciTegic.value.DoubleValue
1.075

@<SCITEGIC>MOL_PROPERTY
Pdih
SciTegic.value.DoubleValue
1.862

@<SCITEGIC>MOL_PROPERTY
Idih
SciTegic.value.DoubleValue
0.000

@<SCITEGIC>MOL_PROPERTY
Tether
SciTegic.value.DoubleValue
0.000

@<TRIPOS>MOLECULE
guest-s14_vm2.mol2 : vm2 ligand conformer 38
          26          25           1
SMALL
USER_CHARGES
 
@<TRIPOS>ATOM
       1    C1      18.677547   18.947017   19.924137 C.3        1 MOL1        -0.2400
       2    H1      18.013098   18.168912   20.321959 H          1 MOL1         0.0971
       3    H2      18.050646   19.767720   19.552044 H          1 MOL1         0.0971
       4    H3      19.223640   18.526433   19.069678 H          1 MOL1         0.0971
       5    C2      19.650327   19.453605   21.010004 C.3        1 MOL1        -0.1385
       6    H4      19.069668   19.901926   21.827163 H          1 MOL1         0.0960
       7    H5      20.280932   20.250542   20.591822 H          1 MOL1         0.0960
       8    C3      20.542574   18.312879   21.553438 C.3        1 MOL1        -0.1409
       9    H6      19.915224   17.534906   22.008101 H          1 MOL1         0.0960
      10    H7      21.056157   17.829980   20.710659 H          1 MOL1         0.0960
      11    C4      21.614351   18.791230   22.566985 C.3        1 MOL1        -0.1409
      12    H8      22.305703   19.475906   22.056620 H          1 MOL1         0.0960
      13    H9      22.220014   17.927163   22.873194 H          1 MOL1         0.0960
      14    C5      21.064285   19.493742   23.835349 C.3        1 MOL1        -0.1409
      15    H10     21.916031   19.786156   24.465123 H          1 MOL1         0.0960
      16    H11     20.560240   20.429262   23.558523 H          1 MOL1         0.0960
      17    C6      20.106035   18.609411   24.667003 C.3        1 MOL1        -0.1450
      18    H12     20.597670   17.657791   24.908957 H          1 MOL1         0.0960
      19    H13     19.208918   18.371612   24.081442 H          1 MOL1         0.0960
      20    C7      19.682813   19.312489   25.968660 C.3        1 MOL1         0.0172
      21    H14     20.567844   19.538253   26.569659 H          1 MOL1         0.0934
      22    H15     19.178667   20.253300   25.731672 H          1 MOL1         0.0934
      23    N1      18.743068   18.478627   26.815423 N.4        1 MOL1        -0.5956
      24    H16     18.474366   18.965208   27.677663 H          1 MOL1         0.3624
      25    H17     19.168867   17.588944   27.095370 H          1 MOL1         0.3624
      26    H18     17.875827   18.254685   26.316537 H          1 MOL1         0.3624
@<TRIPOS>BOND
    1     1     2    1
    2     1     3    1
    3     1     4    1
    4     1     5    1
    5     5     6    1
    6     5     7    1
    7     5     8    1
    8     8     9    1
    9     8    10    1
   10     8    11    1
   11    11    12    1
   12    11    13    1
   13    11    14    1
   14    14    15    1
   15    14    16    1
   16    14    17    1
   17    17    18    1
   18    17    19    1
   19    17    20    1
   20    20    21    1
   21    20    22    1
   22    20    23    1
   23    23    24    1
   24    23    25    1
   25    23    26    1
@<TRIPOS>SUBSTRUCTURE
       1 MOL1            1 RESIDUE      1      MOL     
@<SCITEGIC>MOL_PROPERTY
VM2 Rank
SciTegic.value.IntegerValue
38

@<SCITEGIC>MOL_PROPERTY
Conf_Id
SciTegic.value.IntegerValue
1352

@<SCITEGIC>MOL_PROPERTY
Probability
SciTegic.value.DoubleValue
0.89

@<SCITEGIC>MOL_PROPERTY
Sum Probability
SciTegic.value.DoubleValue
77.76

@<SCITEGIC>MOL_PROPERTY
Delta G
SciTegic.value.DoubleValue
1.288

@<SCITEGIC>MOL_PROPERTY
G
SciTegic.value.DoubleValue
49.549

@<SCITEGIC>MOL_PROPERTY
E
SciTegic.value.DoubleValue
16.754

@<SCITEGIC>MOL_PROPERTY
-TS
SciTegic.value.DoubleValue
32.795

@<SCITEGIC>MOL_PROPERTY
U+W
SciTegic.value.DoubleValue
-4.708

@<SCITEGIC>MOL_PROPERTY
U
SciTegic.value.DoubleValue
48.910

@<SCITEGIC>MOL_PROPERTY
W
SciTegic.value.DoubleValue
-53.618

@<SCITEGIC>MOL_PROPERTY
W(PB)
SciTegic.value.DoubleValue
-55.929

@<SCITEGIC>MOL_PROPERTY
W(SA)
SciTegic.value.DoubleValue
2.311

@<SCITEGIC>MOL_PROPERTY
Valence
SciTegic.value.DoubleValue
3.149

@<SCITEGIC>MOL_PROPERTY
Coulomb
SciTegic.value.DoubleValue
45.131

@<SCITEGIC>MOL_PROPERTY
VdW
SciTegic.value.DoubleValue
0.630

@<SCITEGIC>MOL_PROPERTY
VdW6
SciTegic.value.DoubleValue
-7.453

@<SCITEGIC>MOL_PROPERTY
VdW12
SciTegic.value.DoubleValue
8.083

@<SCITEGIC>MOL_PROPERTY
Bond
SciTegic.value.DoubleValue
0.212

@<SCITEGIC>MOL_PROPERTY
Angle
SciTegic.value.DoubleValue
1.075

@<SCITEGIC>MOL_PROPERTY
Pdih
SciTegic.value.DoubleValue
1.862

@<SCITEGIC>MOL_PROPERTY
Idih
SciTegic.value.DoubleValue
0.000

@<SCITEGIC>MOL_PROPERTY
Tether
SciTegic.value.DoubleValue
0.000

@<TRIPOS>MOLECULE
guest-s14_vm2.mol2 : vm2 ligand conformer 39
          26          25           1
SMALL
USER_CHARGES
 
@<TRIPOS>ATOM
       1    C1      19.845620   19.221288   19.327773 C.3        1 MOL1        -0.2400
       2    H1      19.944968   20.314479   19.336619 H          1 MOL1         0.0971
       3    H2      20.072640   18.872150   18.312145 H          1 MOL1         0.0971
       4    H3      18.798593   18.968890   19.535633 H          1 MOL1         0.0971
       5    C2      20.802983   18.567669   20.350238 C.3        1 MOL1        -0.1385
       6    H4      21.838107   18.742326   20.024920 H          1 MOL1         0.0960
       7    H5      20.660009   17.478035   20.347349 H          1 MOL1         0.0960
       8    C3      20.637658   19.113971   21.789228 C.3        1 MOL1        -0.1409
       9    H6      21.443360   18.694229   22.404852 H          1 MOL1         0.0960
      10    H7      20.783859   20.202849   21.786817 H          1 MOL1         0.0960
      11    C4      19.266343   18.771194   22.425329 C.3        1 MOL1        -0.1409
      12    H8      19.121188   17.682182   22.430052 H          1 MOL1         0.0960
      13    H9      18.462367   19.187252   21.804715 H          1 MOL1         0.0960
      14    C5      19.094607   19.323879   23.861918 C.3        1 MOL1        -0.1409
      15    H10     19.240827   20.412990   23.857716 H          1 MOL1         0.0960
      16    H11     18.055596   19.154141   24.177156 H          1 MOL1         0.0960
      17    C6      20.042945   18.673357   24.896558 C.3        1 MOL1        -0.1450
      18    H12     21.087169   18.903950   24.651624 H          1 MOL1         0.0960
      19    H13     19.934850   17.581110   24.861932 H          1 MOL1         0.0960
      20    C7      19.742557   19.171330   26.321300 C.3        1 MOL1         0.0172
      21    H14     19.864502   20.257002   26.365069 H          1 MOL1         0.0934
      22    H15     18.709308   18.930259   26.585383 H          1 MOL1         0.0934
      23    N1      20.648287   18.556312   27.368655 N.4        1 MOL1        -0.5956
      24    H16     21.635624   18.769929   27.193356 H          1 MOL1         0.3624
      25    H17     20.560752   17.535167   27.397544 H          1 MOL1         0.3624
      26    H18     20.430895   18.901201   28.310057 H          1 MOL1         0.3624
@<TRIPOS>BOND
    1     1     2    1
    2     1     3    1
    3     1     4    1
    4     1     5    1
    5     5     6    1
    6     5     7    1
    7     5     8    1
    8     8     9    1
    9     8    10    1
   10     8    11    1
   11    11    12    1
   12    11    13    1
   13    11    14    1
   14    14    15    1
   15    14    16    1
   16    14    17    1
   17    17    18    1
   18    17    19    1
   19    17    20    1
   20    20    21    1
   21    20    22    1
   22    20    23    1
   23    23    24    1
   24    23    25    1
   25    23    26    1
@<TRIPOS>SUBSTRUCTURE
       1 MOL1            1 RESIDUE      1      MOL     
@<SCITEGIC>MOL_PROPERTY
VM2 Rank
SciTegic.value.IntegerValue
39

@<SCITEGIC>MOL_PROPERTY
Conf_Id
SciTegic.value.IntegerValue
1185

@<SCITEGIC>MOL_PROPERTY
Probability
SciTegic.value.DoubleValue
0.80

@<SCITEGIC>MOL_PROPERTY
Sum Probability
SciTegic.value.DoubleValue
78.56

@<SCITEGIC>MOL_PROPERTY
Delta G
SciTegic.value.DoubleValue
1.350

@<SCITEGIC>MOL_PROPERTY
G
SciTegic.value.DoubleValue
49.611

@<SCITEGIC>MOL_PROPERTY
E
SciTegic.value.DoubleValue
17.104

@<SCITEGIC>MOL_PROPERTY
-TS
SciTegic.value.DoubleValue
32.507

@<SCITEGIC>MOL_PROPERTY
U+W
SciTegic.value.DoubleValue
-4.358

@<SCITEGIC>MOL_PROPERTY
U
SciTegic.value.DoubleValue
48.901

@<SCITEGIC>MOL_PROPERTY
W
SciTegic.value.DoubleValue
-53.260

@<SCITEGIC>MOL_PROPERTY
W(PB)
SciTegic.value.DoubleValue
-55.568

@<SCITEGIC>MOL_PROPERTY
W(SA)
SciTegic.value.DoubleValue
2.309

@<SCITEGIC>MOL_PROPERTY
Valence
SciTegic.value.DoubleValue
3.277

@<SCITEGIC>MOL_PROPERTY
Coulomb
SciTegic.value.DoubleValue
44.745

@<SCITEGIC>MOL_PROPERTY
VdW
SciTegic.value.DoubleValue
0.880

@<SCITEGIC>MOL_PROPERTY
VdW6
SciTegic.value.DoubleValue
-6.990

@<SCITEGIC>MOL_PROPERTY
VdW12
SciTegic.value.DoubleValue
7.870

@<SCITEGIC>MOL_PROPERTY
Bond
SciTegic.value.DoubleValue
0.211

@<SCITEGIC>MOL_PROPERTY
Angle
SciTegic.value.DoubleValue
0.950

@<SCITEGIC>MOL_PROPERTY
Pdih
SciTegic.value.DoubleValue
2.115

@<SCITEGIC>MOL_PROPERTY
Idih
SciTegic.value.DoubleValue
0.000

@<SCITEGIC>MOL_PROPERTY
Tether
SciTegic.value.DoubleValue
0.000

@<TRIPOS>MOLECULE
guest-s14_vm2.mol2 : vm2 ligand conformer 40
          26          25           1
SMALL
USER_CHARGES
 
@<TRIPOS>ATOM
       1    C1      19.987055   19.314568   19.332447 C.3        1 MOL1        -0.2400
       2    H1      20.620470   20.170262   19.596546 H          1 MOL1         0.0971
       3    H2      20.265935   18.999541   18.318582 H          1 MOL1         0.0971
       4    H3      18.943603   19.654205   19.302966 H          1 MOL1         0.0971
       5    C2      20.163542   18.146127   20.328842 C.3        1 MOL1        -0.1385
       6    H4      21.220561   17.847674   20.366067 H          1 MOL1         0.0960
       7    H5      19.611554   17.274359   19.950493 H          1 MOL1         0.0960
       8    C3      19.659801   18.469329   21.756519 C.3        1 MOL1        -0.1409
       9    H6      18.602494   18.764824   21.713873 H          1 MOL1         0.0960
      10    H7      19.699911   17.544884   22.346543 H          1 MOL1         0.0960
      11    C4      20.483968   19.573849   22.466032 C.3        1 MOL1        -0.1409
      12    H8      20.446833   20.495402   21.871050 H          1 MOL1         0.0960
      13    H9      21.540871   19.277241   22.510964 H          1 MOL1         0.0960
      14    C5      19.976999   19.905566   23.891404 C.3        1 MOL1        -0.1409
      15    H10     20.526572   20.783081   24.259736 H          1 MOL1         0.0960
      16    H11     18.919550   20.201177   23.846956 H          1 MOL1         0.0960
      17    C6      20.153479   18.746228   24.900262 C.3        1 MOL1        -0.1450
      18    H12     21.200618   18.415517   24.904214 H          1 MOL1         0.0960
      19    H13     19.542648   17.885803   24.600053 H          1 MOL1         0.0960
      20    C7      19.747978   19.174921   26.321493 C.3        1 MOL1         0.0172
      21    H14     20.363147   20.020626   26.640564 H          1 MOL1         0.0934
      22    H15     18.700974   19.489928   26.326253 H          1 MOL1         0.0934
      23    N1      19.908177   18.068412   27.344001 N.4        1 MOL1        -0.5956
      24    H16     20.879035   17.745085   27.408254 H          1 MOL1         0.3624
      25    H17     19.332181   17.251294   27.116536 H          1 MOL1         0.3624
      26    H18     19.633069   18.375296   28.283460 H          1 MOL1         0.3624
@<TRIPOS>BOND
    1     1     2    1
    2     1     3    1
    3     1     4    1
    4     1     5    1
    5     5     6    1
    6     5     7    1
    7     5     8    1
    8     8     9    1
    9     8    10    1
   10     8    11    1
   11    11    12    1
   12    11    13    1
   13    11    14    1
   14    14    15    1
   15    14    16    1
   16    14    17    1
   17    17    18    1
   18    17    19    1
   19    17    20    1
   20    20    21    1
   21    20    22    1
   22    20    23    1
   23    23    24    1
   24    23    25    1
   25    23    26    1
@<TRIPOS>SUBSTRUCTURE
       1 MOL1            1 RESIDUE      1      MOL     
@<SCITEGIC>MOL_PROPERTY
VM2 Rank
SciTegic.value.IntegerValue
40

@<SCITEGIC>MOL_PROPERTY
Conf_Id
SciTegic.value.IntegerValue
931

@<SCITEGIC>MOL_PROPERTY
Probability
SciTegic.value.DoubleValue
0.78

@<SCITEGIC>MOL_PROPERTY
Sum Probability
SciTegic.value.DoubleValue
79.34

@<SCITEGIC>MOL_PROPERTY
Delta G
SciTegic.value.DoubleValue
1.364

@<SCITEGIC>MOL_PROPERTY
G
SciTegic.value.DoubleValue
49.626

@<SCITEGIC>MOL_PROPERTY
E
SciTegic.value.DoubleValue
17.119

@<SCITEGIC>MOL_PROPERTY
-TS
SciTegic.value.DoubleValue
32.507

@<SCITEGIC>MOL_PROPERTY
U+W
SciTegic.value.DoubleValue
-4.343

@<SCITEGIC>MOL_PROPERTY
U
SciTegic.value.DoubleValue
48.901

@<SCITEGIC>MOL_PROPERTY
W
SciTegic.value.DoubleValue
-53.245

@<SCITEGIC>MOL_PROPERTY
W(PB)
SciTegic.value.DoubleValue
-55.589

@<SCITEGIC>MOL_PROPERTY
W(SA)
SciTegic.value.DoubleValue
2.344

@<SCITEGIC>MOL_PROPERTY
Valence
SciTegic.value.DoubleValue
3.277

@<SCITEGIC>MOL_PROPERTY
Coulomb
SciTegic.value.DoubleValue
44.745

@<SCITEGIC>MOL_PROPERTY
VdW
SciTegic.value.DoubleValue
0.880

@<SCITEGIC>MOL_PROPERTY
VdW6
SciTegic.value.DoubleValue
-6.990

@<SCITEGIC>MOL_PROPERTY
VdW12
SciTegic.value.DoubleValue
7.870

@<SCITEGIC>MOL_PROPERTY
Bond
SciTegic.value.DoubleValue
0.211

@<SCITEGIC>MOL_PROPERTY
Angle
SciTegic.value.DoubleValue
0.950

@<SCITEGIC>MOL_PROPERTY
Pdih
SciTegic.value.DoubleValue
2.115

@<SCITEGIC>MOL_PROPERTY
Idih
SciTegic.value.DoubleValue
0.000

@<SCITEGIC>MOL_PROPERTY
Tether
SciTegic.value.DoubleValue
0.000

@<TRIPOS>MOLECULE
guest-s14_vm2.mol2 : vm2 ligand conformer 41
          26          25           1
SMALL
USER_CHARGES
 
@<TRIPOS>ATOM
       1    C1      20.706180   19.737831   19.874747 C.3        1 MOL1        -0.2400
       2    H1      21.382256   19.716159   19.010237 H          1 MOL1         0.0971
       3    H2      19.743931   20.145092   19.538241 H          1 MOL1         0.0971
       4    H3      21.134417   20.429620   20.610614 H          1 MOL1         0.0971
       5    C2      20.534109   18.318720   20.462332 C.3        1 MOL1        -0.1385
       6    H4      21.504616   17.946208   20.818830 H          1 MOL1         0.0960
       7    H5      20.220277   17.638323   19.658370 H          1 MOL1         0.0960
       8    C3      19.493999   18.248446   21.606423 C.3        1 MOL1        -0.1409
       9    H6      18.520129   18.599729   21.238423 H          1 MOL1         0.0960
      10    H7      19.356375   17.195371   21.888148 H          1 MOL1         0.0960
      11    C4      19.901436   19.058144   22.860654 C.3        1 MOL1        -0.1409
      12    H8      19.968741   20.124967   22.610298 H          1 MOL1         0.0960
      13    H9      20.901727   18.741541   23.184394 H          1 MOL1         0.0960
      14    C5      18.887789   18.872551   24.015214 C.3        1 MOL1        -0.1409
      15    H10     17.884336   19.144919   23.659892 H          1 MOL1         0.0960
      16    H11     18.834100   17.812293   24.296332 H          1 MOL1         0.0960
      17    C6      19.219023   19.731789   25.261206 C.3        1 MOL1        -0.1450
      18    H12     18.440385   19.584220   26.021302 H          1 MOL1         0.0960
      19    H13     19.182120   20.794715   24.987920 H          1 MOL1         0.0960
      20    C7      20.596691   19.429185   25.884828 C.3        1 MOL1         0.0172
      21    H14     21.384488   19.617010   25.150830 H          1 MOL1         0.0934
      22    H15     20.762608   20.092978   26.737676 H          1 MOL1         0.0934
      23    N1      20.741775   18.002334   26.375597 N.4        1 MOL1        -0.5956
      24    H16     20.044271   17.773581   27.091183 H          1 MOL1         0.3624
      25    H17     21.664313   17.834006   26.791237 H          1 MOL1         0.3624
      26    H18     20.626781   17.327621   25.613008 H          1 MOL1         0.3624
@<TRIPOS>BOND
    1     1     2    1
    2     1     3    1
    3     1     4    1
    4     1     5    1
    5     5     6    1
    6     5     7    1
    7     5     8    1
    8     8     9    1
    9     8    10    1
   10     8    11    1
   11    11    12    1
   12    11    13    1
   13    11    14    1
   14    14    15    1
   15    14    16    1
   16    14    17    1
   17    17    18    1
   18    17    19    1
   19    17    20    1
   20    20    21    1
   21    20    22    1
   22    20    23    1
   23    23    24    1
   24    23    25    1
   25    23    26    1
@<TRIPOS>SUBSTRUCTURE
       1 MOL1            1 RESIDUE      1      MOL     
@<SCITEGIC>MOL_PROPERTY
VM2 Rank
SciTegic.value.IntegerValue
41

@<SCITEGIC>MOL_PROPERTY
Conf_Id
SciTegic.value.IntegerValue
1253

@<SCITEGIC>MOL_PROPERTY
Probability
SciTegic.value.DoubleValue
0.66

@<SCITEGIC>MOL_PROPERTY
Sum Probability
SciTegic.value.DoubleValue
80.00

@<SCITEGIC>MOL_PROPERTY
Delta G
SciTegic.value.DoubleValue
1.465

@<SCITEGIC>MOL_PROPERTY
G
SciTegic.value.DoubleValue
49.726

@<SCITEGIC>MOL_PROPERTY
E
SciTegic.value.DoubleValue
16.976

@<SCITEGIC>MOL_PROPERTY
-TS
SciTegic.value.DoubleValue
32.750

@<SCITEGIC>MOL_PROPERTY
U+W
SciTegic.value.DoubleValue
-4.486

@<SCITEGIC>MOL_PROPERTY
U
SciTegic.value.DoubleValue
49.277

@<SCITEGIC>MOL_PROPERTY
W
SciTegic.value.DoubleValue
-53.764

@<SCITEGIC>MOL_PROPERTY
W(PB)
SciTegic.value.DoubleValue
-56.060

@<SCITEGIC>MOL_PROPERTY
W(SA)
SciTegic.value.DoubleValue
2.297

@<SCITEGIC>MOL_PROPERTY
Valence
SciTegic.value.DoubleValue
3.047

@<SCITEGIC>MOL_PROPERTY
Coulomb
SciTegic.value.DoubleValue
45.459

@<SCITEGIC>MOL_PROPERTY
VdW
SciTegic.value.DoubleValue
0.771

@<SCITEGIC>MOL_PROPERTY
VdW6
SciTegic.value.DoubleValue
-7.730

@<SCITEGIC>MOL_PROPERTY
VdW12
SciTegic.value.DoubleValue
8.501

@<SCITEGIC>MOL_PROPERTY
Bond
SciTegic.value.DoubleValue
0.210

@<SCITEGIC>MOL_PROPERTY
Angle
SciTegic.value.DoubleValue
0.867

@<SCITEGIC>MOL_PROPERTY
Pdih
SciTegic.value.DoubleValue
1.970

@<SCITEGIC>MOL_PROPERTY
Idih
SciTegic.value.DoubleValue
0.000

@<SCITEGIC>MOL_PROPERTY
Tether
SciTegic.value.DoubleValue
0.000

@<TRIPOS>MOLECULE
guest-s14_vm2.mol2 : vm2 ligand conformer 42
          26          25           1
SMALL
USER_CHARGES
 
@<TRIPOS>ATOM
       1    C1      19.149186   18.711967   19.822471 C.3        1 MOL1        -0.2400
       2    H1      18.311054   18.569923   20.515878 H          1 MOL1         0.0971
       3    H2      19.170007   19.766604   19.518616 H          1 MOL1         0.0971
       4    H3      18.943285   18.109104   18.928554 H          1 MOL1         0.0971
       5    C2      20.492207   18.290957   20.461050 C.3        1 MOL1        -0.1385
       6    H4      21.278028   18.334644   19.694002 H          1 MOL1         0.0960
       7    H5      20.435344   17.241846   20.783344 H          1 MOL1         0.0960
       8    C3      20.912716   19.183089   21.653935 C.3        1 MOL1        -0.1409
       9    H6      21.920563   18.884689   21.974058 H          1 MOL1         0.0960
      10    H7      20.990683   20.227285   21.321032 H          1 MOL1         0.0960
      11    C4      19.950445   19.090538   22.862313 C.3        1 MOL1        -0.1409
      12    H8      19.832456   18.037151   23.148810 H          1 MOL1         0.0960
      13    H9      18.956131   19.457800   22.576348 H          1 MOL1         0.0960
      14    C5      20.465822   19.912658   24.067898 C.3        1 MOL1        -0.1409
      15    H10     21.447447   19.534734   24.383559 H          1 MOL1         0.0960
      16    H11     20.626864   20.952499   23.751429 H          1 MOL1         0.0960
      17    C6      19.488654   19.909561   25.270244 C.3        1 MOL1        -0.1450
      18    H12     18.539825   20.371461   24.966546 H          1 MOL1         0.0960
      19    H13     19.895043   20.543007   26.069865 H          1 MOL1         0.0960
      20    C7      19.195787   18.505936   25.838147 C.3        1 MOL1         0.0172
      21    H14     18.481473   18.589528   26.661717 H          1 MOL1         0.0934
      22    H15     18.747514   17.879207   25.062959 H          1 MOL1         0.0934
      23    N1      20.426181   17.794294   26.364943 N.4        1 MOL1        -0.5956
      24    H16     20.877394   18.322514   27.118797 H          1 MOL1         0.3624
      25    H17     21.126300   17.656860   25.629454 H          1 MOL1         0.3624
      26    H18     20.198659   16.867977   26.742218 H          1 MOL1         0.3624
@<TRIPOS>BOND
    1     1     2    1
    2     1     3    1
    3     1     4    1
    4     1     5    1
    5     5     6    1
    6     5     7    1
    7     5     8    1
    8     8     9    1
    9     8    10    1
   10     8    11    1
   11    11    12    1
   12    11    13    1
   13    11    14    1
   14    14    15    1
   15    14    16    1
   16    14    17    1
   17    17    18    1
   18    17    19    1
   19    17    20    1
   20    20    21    1
   21    20    22    1
   22    20    23    1
   23    23    24    1
   24    23    25    1
   25    23    26    1
@<TRIPOS>SUBSTRUCTURE
       1 MOL1            1 RESIDUE      1      MOL     
@<SCITEGIC>MOL_PROPERTY
VM2 Rank
SciTegic.value.IntegerValue
42

@<SCITEGIC>MOL_PROPERTY
Conf_Id
SciTegic.value.IntegerValue
166

@<SCITEGIC>MOL_PROPERTY
Probability
SciTegic.value.DoubleValue
0.64

@<SCITEGIC>MOL_PROPERTY
Sum Probability
SciTegic.value.DoubleValue
80.64

@<SCITEGIC>MOL_PROPERTY
Delta G
SciTegic.value.DoubleValue
1.482

@<SCITEGIC>MOL_PROPERTY
G
SciTegic.value.DoubleValue
49.743

@<SCITEGIC>MOL_PROPERTY
E
SciTegic.value.DoubleValue
16.993

@<SCITEGIC>MOL_PROPERTY
-TS
SciTegic.value.DoubleValue
32.750

@<SCITEGIC>MOL_PROPERTY
U+W
SciTegic.value.DoubleValue
-4.469

@<SCITEGIC>MOL_PROPERTY
U
SciTegic.value.DoubleValue
49.278

@<SCITEGIC>MOL_PROPERTY
W
SciTegic.value.DoubleValue
-53.747

@<SCITEGIC>MOL_PROPERTY
W(PB)
SciTegic.value.DoubleValue
-56.035

@<SCITEGIC>MOL_PROPERTY
W(SA)
SciTegic.value.DoubleValue
2.288

@<SCITEGIC>MOL_PROPERTY
Valence
SciTegic.value.DoubleValue
3.047

@<SCITEGIC>MOL_PROPERTY
Coulomb
SciTegic.value.DoubleValue
45.459

@<SCITEGIC>MOL_PROPERTY
VdW
SciTegic.value.DoubleValue
0.771

@<SCITEGIC>MOL_PROPERTY
VdW6
SciTegic.value.DoubleValue
-7.730

@<SCITEGIC>MOL_PROPERTY
VdW12
SciTegic.value.DoubleValue
8.501

@<SCITEGIC>MOL_PROPERTY
Bond
SciTegic.value.DoubleValue
0.210

@<SCITEGIC>MOL_PROPERTY
Angle
SciTegic.value.DoubleValue
0.867

@<SCITEGIC>MOL_PROPERTY
Pdih
SciTegic.value.DoubleValue
1.970

@<SCITEGIC>MOL_PROPERTY
Idih
SciTegic.value.DoubleValue
0.000

@<SCITEGIC>MOL_PROPERTY
Tether
SciTegic.value.DoubleValue
0.000

@<TRIPOS>MOLECULE
guest-s14_vm2.mol2 : vm2 ligand conformer 43
          26          25           1
SMALL
USER_CHARGES
 
@<TRIPOS>ATOM
       1    C1      20.382611   19.910923   19.621970 C.3        1 MOL1        -0.2400
       2    H1      19.359636   19.803644   19.238244 H          1 MOL1         0.0971
       3    H2      20.492530   20.926830   20.023308 H          1 MOL1         0.0971
       4    H3      21.072933   19.806782   18.774834 H          1 MOL1         0.0971
       5    C2      20.683304   18.851535   20.703363 C.3        1 MOL1        -0.1385
       6    H4      21.722393   18.962692   21.043726 H          1 MOL1         0.0960
       7    H5      20.599378   17.847924   20.263359 H          1 MOL1         0.0960
       8    C3      19.724210   18.975508   21.907900 C.3        1 MOL1        -0.1409
       9    H6      19.810956   19.984440   22.332044 H          1 MOL1         0.0960
      10    H7      18.687089   18.861409   21.563602 H          1 MOL1         0.0960
      11    C4      20.027853   17.917159   22.995204 C.3        1 MOL1        -0.1409
      12    H8      21.050912   18.054776   23.369806 H          1 MOL1         0.0960
      13    H9      20.004690   16.918362   22.537840 H          1 MOL1         0.0960
      14    C5      19.022450   17.936703   24.175553 C.3        1 MOL1        -0.1409
      15    H10     18.018697   17.702074   23.795274 H          1 MOL1         0.0960
      16    H11     19.274422   17.123150   24.869004 H          1 MOL1         0.0960
      17    C6      18.959999   19.274678   24.958286 C.3        1 MOL1        -0.1450
      18    H12     18.259285   19.169392   25.797109 H          1 MOL1         0.0960
      19    H13     18.540978   20.059452   24.315644 H          1 MOL1         0.0960
      20    C7      20.324405   19.748796   25.497647 C.3        1 MOL1         0.0172
      21    H14     21.020262   19.890826   24.666658 H          1 MOL1         0.0934
      22    H15     20.200879   20.709041   26.005716 H          1 MOL1         0.0934
      23    N1      20.956167   18.783698   26.481078 N.4        1 MOL1        -0.5956
      24    H16     21.860169   19.125893   26.824256 H          1 MOL1         0.3624
      25    H17     21.122071   17.866495   26.055545 H          1 MOL1         0.3624
      26    H18     20.360949   18.633814   27.302108 H          1 MOL1         0.3624
@<TRIPOS>BOND
    1     1     2    1
    2     1     3    1
    3     1     4    1
    4     1     5    1
    5     5     6    1
    6     5     7    1
    7     5     8    1
    8     8     9    1
    9     8    10    1
   10     8    11    1
   11    11    12    1
   12    11    13    1
   13    11    14    1
   14    14    15    1
   15    14    16    1
   16    14    17    1
   17    17    18    1
   18    17    19    1
   19    17    20    1
   20    20    21    1
   21    20    22    1
   22    20    23    1
   23    23    24    1
   24    23    25    1
   25    23    26    1
@<TRIPOS>SUBSTRUCTURE
       1 MOL1            1 RESIDUE      1      MOL     
@<SCITEGIC>MOL_PROPERTY
VM2 Rank
SciTegic.value.IntegerValue
43

@<SCITEGIC>MOL_PROPERTY
Conf_Id
SciTegic.value.IntegerValue
70

@<SCITEGIC>MOL_PROPERTY
Probability
SciTegic.value.DoubleValue
0.63

@<SCITEGIC>MOL_PROPERTY
Sum Probability
SciTegic.value.DoubleValue
81.27

@<SCITEGIC>MOL_PROPERTY
Delta G
SciTegic.value.DoubleValue
1.492

@<SCITEGIC>MOL_PROPERTY
G
SciTegic.value.DoubleValue
49.754

@<SCITEGIC>MOL_PROPERTY
E
SciTegic.value.DoubleValue
16.853

@<SCITEGIC>MOL_PROPERTY
-TS
SciTegic.value.DoubleValue
32.901

@<SCITEGIC>MOL_PROPERTY
U+W
SciTegic.value.DoubleValue
-4.609

@<SCITEGIC>MOL_PROPERTY
U
SciTegic.value.DoubleValue
49.198

@<SCITEGIC>MOL_PROPERTY
W
SciTegic.value.DoubleValue
-53.807

@<SCITEGIC>MOL_PROPERTY
W(PB)
SciTegic.value.DoubleValue
-56.083

@<SCITEGIC>MOL_PROPERTY
W(SA)
SciTegic.value.DoubleValue
2.276

@<SCITEGIC>MOL_PROPERTY
Valence
SciTegic.value.DoubleValue
3.018

@<SCITEGIC>MOL_PROPERTY
Coulomb
SciTegic.value.DoubleValue
45.590

@<SCITEGIC>MOL_PROPERTY
VdW
SciTegic.value.DoubleValue
0.590

@<SCITEGIC>MOL_PROPERTY
VdW6
SciTegic.value.DoubleValue
-8.074

@<SCITEGIC>MOL_PROPERTY
VdW12
SciTegic.value.DoubleValue
8.663

@<SCITEGIC>MOL_PROPERTY
Bond
SciTegic.value.DoubleValue
0.222

@<SCITEGIC>MOL_PROPERTY
Angle
SciTegic.value.DoubleValue
0.958

@<SCITEGIC>MOL_PROPERTY
Pdih
SciTegic.value.DoubleValue
1.839

@<SCITEGIC>MOL_PROPERTY
Idih
SciTegic.value.DoubleValue
0.000

@<SCITEGIC>MOL_PROPERTY
Tether
SciTegic.value.DoubleValue
0.000

@<TRIPOS>MOLECULE
guest-s14_vm2.mol2 : vm2 ligand conformer 44
          26          25           1
SMALL
USER_CHARGES
 
@<TRIPOS>ATOM
       1    C1      19.387251   19.949333   20.201339 C.3        1 MOL1        -0.2400
       2    H1      19.465814   20.643027   21.047693 H          1 MOL1         0.0971
       3    H2      20.232169   20.133653   19.525257 H          1 MOL1         0.0971
       4    H3      18.463993   20.192216   19.659636 H          1 MOL1         0.0971
       5    C2      19.365974   18.478558   20.675286 C.3        1 MOL1        -0.1385
       6    H4      19.167177   17.831090   19.809877 H          1 MOL1         0.0960
       7    H5      18.525546   18.323425   21.364943 H          1 MOL1         0.0960
       8    C3      20.692613   18.024487   21.335996 C.3        1 MOL1        -0.1409
       9    H6      20.604749   16.965269   21.614316 H          1 MOL1         0.0960
      10    H7      21.495919   18.072653   20.587993 H          1 MOL1         0.0960
      11    C4      21.125247   18.838914   22.582595 C.3        1 MOL1        -0.1409
      12    H8      21.327252   19.879961   22.297718 H          1 MOL1         0.0960
      13    H9      22.080548   18.434348   22.944439 H          1 MOL1         0.0960
      14    C5      20.093503   18.801116   23.735254 C.3        1 MOL1        -0.1409
      15    H10     19.155700   19.272218   23.412270 H          1 MOL1         0.0960
      16    H11     19.860999   17.755798   23.978073 H          1 MOL1         0.0960
      17    C6      20.616381   19.530973   24.995032 C.3        1 MOL1        -0.1450
      18    H12     20.884235   20.562974   24.731980 H          1 MOL1         0.0960
      19    H13     21.535958   19.050410   25.354728 H          1 MOL1         0.0960
      20    C7      19.578495   19.571491   26.133183 C.3        1 MOL1         0.0172
      21    H14     19.970767   20.168967   26.960650 H          1 MOL1         0.0934
      22    H15     18.659507   20.044562   25.776721 H          1 MOL1         0.0934
      23    N1      19.221536   18.204130   26.682314 N.4        1 MOL1        -0.5956
      24    H16     20.043248   17.717182   27.054717 H          1 MOL1         0.3624
      25    H17     18.812104   17.600944   25.962293 H          1 MOL1         0.3624
      26    H18     18.538989   18.266697   27.445545 H          1 MOL1         0.3624
@<TRIPOS>BOND
    1     1     2    1
    2     1     3    1
    3     1     4    1
    4     1     5    1
    5     5     6    1
    6     5     7    1
    7     5     8    1
    8     8     9    1
    9     8    10    1
   10     8    11    1
   11    11    12    1
   12    11    13    1
   13    11    14    1
   14    14    15    1
   15    14    16    1
   16    14    17    1
   17    17    18    1
   18    17    19    1
   19    17    20    1
   20    20    21    1
   21    20    22    1
   22    20    23    1
   23    23    24    1
   24    23    25    1
   25    23    26    1
@<TRIPOS>SUBSTRUCTURE
       1 MOL1            1 RESIDUE      1      MOL     
@<SCITEGIC>MOL_PROPERTY
VM2 Rank
SciTegic.value.IntegerValue
44

@<SCITEGIC>MOL_PROPERTY
Conf_Id
SciTegic.value.IntegerValue
1114

@<SCITEGIC>MOL_PROPERTY
Probability
SciTegic.value.DoubleValue
0.62

@<SCITEGIC>MOL_PROPERTY
Sum Probability
SciTegic.value.DoubleValue
81.90

@<SCITEGIC>MOL_PROPERTY
Delta G
SciTegic.value.DoubleValue
1.500

@<SCITEGIC>MOL_PROPERTY
G
SciTegic.value.DoubleValue
49.761

@<SCITEGIC>MOL_PROPERTY
E
SciTegic.value.DoubleValue
16.874

@<SCITEGIC>MOL_PROPERTY
-TS
SciTegic.value.DoubleValue
32.888

@<SCITEGIC>MOL_PROPERTY
U+W
SciTegic.value.DoubleValue
-4.588

@<SCITEGIC>MOL_PROPERTY
U
SciTegic.value.DoubleValue
49.147

@<SCITEGIC>MOL_PROPERTY
W
SciTegic.value.DoubleValue
-53.735

@<SCITEGIC>MOL_PROPERTY
W(PB)
SciTegic.value.DoubleValue
-56.021

@<SCITEGIC>MOL_PROPERTY
W(SA)
SciTegic.value.DoubleValue
2.286

@<SCITEGIC>MOL_PROPERTY
Valence
SciTegic.value.DoubleValue
3.219

@<SCITEGIC>MOL_PROPERTY
Coulomb
SciTegic.value.DoubleValue
45.149

@<SCITEGIC>MOL_PROPERTY
VdW
SciTegic.value.DoubleValue
0.779

@<SCITEGIC>MOL_PROPERTY
VdW6
SciTegic.value.DoubleValue
-7.884

@<SCITEGIC>MOL_PROPERTY
VdW12
SciTegic.value.DoubleValue
8.663

@<SCITEGIC>MOL_PROPERTY
Bond
SciTegic.value.DoubleValue
0.228

@<SCITEGIC>MOL_PROPERTY
Angle
SciTegic.value.DoubleValue
1.077

@<SCITEGIC>MOL_PROPERTY
Pdih
SciTegic.value.DoubleValue
1.914

@<SCITEGIC>MOL_PROPERTY
Idih
SciTegic.value.DoubleValue
0.000

@<SCITEGIC>MOL_PROPERTY
Tether
SciTegic.value.DoubleValue
0.000

@<TRIPOS>MOLECULE
guest-s14_vm2.mol2 : vm2 ligand conformer 45
          26          25           1
SMALL
USER_CHARGES
 
@<TRIPOS>ATOM
       1    C1      19.885488   19.748813   19.662991 C.3        1 MOL1        -0.2400
       2    H1      20.291506   20.714569   19.990817 H          1 MOL1         0.0971
       3    H2      19.966710   19.704270   18.569218 H          1 MOL1         0.0971
       4    H3      18.818360   19.720445   19.915968 H          1 MOL1         0.0971
       5    C2      20.653445   18.574394   20.310780 C.3        1 MOL1        -0.1385
       6    H4      21.686798   18.577002   19.936681 H          1 MOL1         0.0960
       7    H5      20.212052   17.621247   19.987639 H          1 MOL1         0.0960
       8    C3      20.684126   18.640024   21.856787 C.3        1 MOL1        -0.1409
       9    H6      21.330320   17.832647   22.227824 H          1 MOL1         0.0960
      10    H7      21.154680   19.582475   22.166311 H          1 MOL1         0.0960
      11    C4      19.282720   18.506122   22.504456 C.3        1 MOL1        -0.1409
      12    H8      18.778867   17.622610   22.088936 H          1 MOL1         0.0960
      13    H9      18.660773   19.371159   22.238896 H          1 MOL1         0.0960
      14    C5      19.328675   18.366549   24.045796 C.3        1 MOL1        -0.1409
      15    H10     18.309275   18.176096   24.409267 H          1 MOL1         0.0960
      16    H11     19.922739   17.482135   24.312159 H          1 MOL1         0.0960
      17    C6      19.891990   19.620309   24.760247 C.3        1 MOL1        -0.1450
      18    H12     19.346599   20.509951   24.418381 H          1 MOL1         0.0960
      19    H13     20.945020   19.773994   24.492511 H          1 MOL1         0.0960
      20    C7      19.769528   19.532214   26.293597 C.3        1 MOL1         0.0172
      21    H14     20.108670   20.471203   26.739500 H          1 MOL1         0.0934
      22    H15     18.722841   19.381316   26.571208 H          1 MOL1         0.0934
      23    N1      20.585028   18.410576   26.906346 N.4        1 MOL1        -0.5956
      24    H16     21.584312   18.509743   26.700114 H          1 MOL1         0.3624
      25    H17     20.292456   17.493444   26.555309 H          1 MOL1         0.3624
      26    H18     20.490821   18.385342   27.927513 H          1 MOL1         0.3624
@<TRIPOS>BOND
    1     1     2    1
    2     1     3    1
    3     1     4    1
    4     1     5    1
    5     5     6    1
    6     5     7    1
    7     5     8    1
    8     8     9    1
    9     8    10    1
   10     8    11    1
   11    11    12    1
   12    11    13    1
   13    11    14    1
   14    14    15    1
   15    14    16    1
   16    14    17    1
   17    17    18    1
   18    17    19    1
   19    17    20    1
   20    20    21    1
   21    20    22    1
   22    20    23    1
   23    23    24    1
   24    23    25    1
   25    23    26    1
@<TRIPOS>SUBSTRUCTURE
       1 MOL1            1 RESIDUE      1      MOL     
@<SCITEGIC>MOL_PROPERTY
VM2 Rank
SciTegic.value.IntegerValue
45

@<SCITEGIC>MOL_PROPERTY
Conf_Id
SciTegic.value.IntegerValue
854

@<SCITEGIC>MOL_PROPERTY
Probability
SciTegic.value.DoubleValue
0.62

@<SCITEGIC>MOL_PROPERTY
Sum Probability
SciTegic.value.DoubleValue
82.52

@<SCITEGIC>MOL_PROPERTY
Delta G
SciTegic.value.DoubleValue
1.501

@<SCITEGIC>MOL_PROPERTY
G
SciTegic.value.DoubleValue
49.763

@<SCITEGIC>MOL_PROPERTY
E
SciTegic.value.DoubleValue
17.062

@<SCITEGIC>MOL_PROPERTY
-TS
SciTegic.value.DoubleValue
32.701

@<SCITEGIC>MOL_PROPERTY
U+W
SciTegic.value.DoubleValue
-4.400

@<SCITEGIC>MOL_PROPERTY
U
SciTegic.value.DoubleValue
49.228

@<SCITEGIC>MOL_PROPERTY
W
SciTegic.value.DoubleValue
-53.627

@<SCITEGIC>MOL_PROPERTY
W(PB)
SciTegic.value.DoubleValue
-55.902

@<SCITEGIC>MOL_PROPERTY
W(SA)
SciTegic.value.DoubleValue
2.275

@<SCITEGIC>MOL_PROPERTY
Valence
SciTegic.value.DoubleValue
3.267

@<SCITEGIC>MOL_PROPERTY
Coulomb
SciTegic.value.DoubleValue
45.067

@<SCITEGIC>MOL_PROPERTY
VdW
SciTegic.value.DoubleValue
0.893

@<SCITEGIC>MOL_PROPERTY
VdW6
SciTegic.value.DoubleValue
-7.615

@<SCITEGIC>MOL_PROPERTY
VdW12
SciTegic.value.DoubleValue
8.508

@<SCITEGIC>MOL_PROPERTY
Bond
SciTegic.value.DoubleValue
0.224

@<SCITEGIC>MOL_PROPERTY
Angle
SciTegic.value.DoubleValue
0.867

@<SCITEGIC>MOL_PROPERTY
Pdih
SciTegic.value.DoubleValue
2.176

@<SCITEGIC>MOL_PROPERTY
Idih
SciTegic.value.DoubleValue
0.000

@<SCITEGIC>MOL_PROPERTY
Tether
SciTegic.value.DoubleValue
0.000

@<TRIPOS>MOLECULE
guest-s14_vm2.mol2 : vm2 ligand conformer 46
          26          25           1
SMALL
USER_CHARGES
 
@<TRIPOS>ATOM
       1    C1      21.456229   18.705822   20.507821 C.3        1 MOL1        -0.2400
       2    H1      21.732079   18.168732   21.423857 H          1 MOL1         0.0971
       3    H2      21.116832   17.970799   19.766540 H          1 MOL1         0.0971
       4    H3      22.364992   19.181907   20.117522 H          1 MOL1         0.0971
       5    C2      20.364156   19.764944   20.779703 C.3        1 MOL1        -0.1385
       6    H4      20.207436   20.353932   19.865261 H          1 MOL1         0.0960
       7    H5      20.718301   20.476717   21.537265 H          1 MOL1         0.0960
       8    C3      19.006324   19.154135   21.211007 C.3        1 MOL1        -0.1409
       9    H6      18.282758   19.967994   21.356698 H          1 MOL1         0.0960
      10    H7      18.612477   18.546714   20.384533 H          1 MOL1         0.0960
      11    C4      19.048010   18.281614   22.492238 C.3        1 MOL1        -0.1409
      12    H8      19.680369   17.399772   22.324196 H          1 MOL1         0.0960
      13    H9      18.036360   17.896020   22.679437 H          1 MOL1         0.0960
      14    C5      19.536787   19.045550   23.746095 C.3        1 MOL1        -0.1409
      15    H10     20.571984   19.376102   23.594791 H          1 MOL1         0.0960
      16    H11     18.927805   19.949461   23.885501 H          1 MOL1         0.0960
      17    C6      19.456590   18.168506   25.017964 C.3        1 MOL1        -0.1450
      18    H12     20.082832   17.274350   24.898495 H          1 MOL1         0.0960
      19    H13     18.425904   17.813719   25.151103 H          1 MOL1         0.0960
      20    C7      19.878908   18.926172   26.291533 C.3        1 MOL1         0.0172
      21    H14     19.262696   19.821720   26.408486 H          1 MOL1         0.0934
      22    H15     19.719288   18.286289   27.163670 H          1 MOL1         0.0934
      23    N1      21.333996   19.352258   26.294640 N.4        1 MOL1        -0.5956
      24    H16     21.585339   19.841199   27.160725 H          1 MOL1         0.3624
      25    H17     21.545209   19.987839   25.519235 H          1 MOL1         0.3624
      26    H18     21.965845   18.549374   26.210059 H          1 MOL1         0.3624
@<TRIPOS>BOND
    1     1     2    1
    2     1     3    1
    3     1     4    1
    4     1     5    1
    5     5     6    1
    6     5     7    1
    7     5     8    1
    8     8     9    1
    9     8    10    1
   10     8    11    1
   11    11    12    1
   12    11    13    1
   13    11    14    1
   14    14    15    1
   15    14    16    1
   16    14    17    1
   17    17    18    1
   18    17    19    1
   19    17    20    1
   20    20    21    1
   21    20    22    1
   22    20    23    1
   23    23    24    1
   24    23    25    1
   25    23    26    1
@<TRIPOS>SUBSTRUCTURE
       1 MOL1            1 RESIDUE      1      MOL     
@<SCITEGIC>MOL_PROPERTY
VM2 Rank
SciTegic.value.IntegerValue
46

@<SCITEGIC>MOL_PROPERTY
Conf_Id
SciTegic.value.IntegerValue
291

@<SCITEGIC>MOL_PROPERTY
Probability
SciTegic.value.DoubleValue
0.62

@<SCITEGIC>MOL_PROPERTY
Sum Probability
SciTegic.value.DoubleValue
83.13

@<SCITEGIC>MOL_PROPERTY
Delta G
SciTegic.value.DoubleValue
1.507

@<SCITEGIC>MOL_PROPERTY
G
SciTegic.value.DoubleValue
49.769

@<SCITEGIC>MOL_PROPERTY
E
SciTegic.value.DoubleValue
16.878

@<SCITEGIC>MOL_PROPERTY
-TS
SciTegic.value.DoubleValue
32.890

@<SCITEGIC>MOL_PROPERTY
U+W
SciTegic.value.DoubleValue
-4.584

@<SCITEGIC>MOL_PROPERTY
U
SciTegic.value.DoubleValue
49.426

@<SCITEGIC>MOL_PROPERTY
W
SciTegic.value.DoubleValue
-54.010

@<SCITEGIC>MOL_PROPERTY
W(PB)
SciTegic.value.DoubleValue
-56.292

@<SCITEGIC>MOL_PROPERTY
W(SA)
SciTegic.value.DoubleValue
2.282

@<SCITEGIC>MOL_PROPERTY
Valence
SciTegic.value.DoubleValue
3.214

@<SCITEGIC>MOL_PROPERTY
Coulomb
SciTegic.value.DoubleValue
45.444

@<SCITEGIC>MOL_PROPERTY
VdW
SciTegic.value.DoubleValue
0.769

@<SCITEGIC>MOL_PROPERTY
VdW6
SciTegic.value.DoubleValue
-7.916

@<SCITEGIC>MOL_PROPERTY
VdW12
SciTegic.value.DoubleValue
8.684

@<SCITEGIC>MOL_PROPERTY
Bond
SciTegic.value.DoubleValue
0.230

@<SCITEGIC>MOL_PROPERTY
Angle
SciTegic.value.DoubleValue
1.078

@<SCITEGIC>MOL_PROPERTY
Pdih
SciTegic.value.DoubleValue
1.906

@<SCITEGIC>MOL_PROPERTY
Idih
SciTegic.value.DoubleValue
0.000

@<SCITEGIC>MOL_PROPERTY
Tether
SciTegic.value.DoubleValue
0.000

@<TRIPOS>MOLECULE
guest-s14_vm2.mol2 : vm2 ligand conformer 47
          26          25           1
SMALL
USER_CHARGES
 
@<TRIPOS>ATOM
       1    C1      19.471545   19.475764   19.649093 C.3        1 MOL1        -0.2400
       2    H1      18.409817   19.474144   19.927909 H          1 MOL1         0.0971
       3    H2      19.905425   20.436752   19.952101 H          1 MOL1         0.0971
       4    H3      19.531394   19.417030   18.554612 H          1 MOL1         0.0971
       5    C2      20.217893   18.287166   20.296280 C.3        1 MOL1        -0.1385
       6    H4      21.281748   18.326162   20.023461 H          1 MOL1         0.0960
       7    H5      19.826652   17.350719   19.874650 H          1 MOL1         0.0960
       8    C3      20.073557   18.237592   21.836440 C.3        1 MOL1        -0.1409
       9    H6      19.008702   18.167847   22.094631 H          1 MOL1         0.0960
      10    H7      20.543767   17.314238   22.201698 H          1 MOL1         0.0960
      11    C4      20.717117   19.451940   22.552356 C.3        1 MOL1        -0.1409
      12    H8      20.179415   20.372525   22.289614 H          1 MOL1         0.0960
      13    H9      21.745823   19.578864   22.187977 H          1 MOL1         0.0960
      14    C5      20.755589   19.307422   24.093444 C.3        1 MOL1        -0.1409
      15    H10     21.322039   18.404798   24.358878 H          1 MOL1         0.0960
      16    H11     21.314136   20.157369   24.509592 H          1 MOL1         0.0960
      17    C6      19.349583   19.262727   24.742155 C.3        1 MOL1        -0.1450
      18    H12     18.807113   18.364494   24.421101 H          1 MOL1         0.0960
      19    H13     18.762752   20.125068   24.398960 H          1 MOL1         0.0960
      20    C7      19.407305   19.293334   26.281521 C.3        1 MOL1         0.0172
      21    H14     19.944305   20.186513   26.612054 H          1 MOL1         0.0934
      22    H15     18.390952   19.338645   26.682172 H          1 MOL1         0.0934
      23    N1      20.088411   18.083055   26.889711 N.4        1 MOL1        -0.5956
      24    H16     20.101174   18.128279   27.914448 H          1 MOL1         0.3624
      25    H17     21.061957   18.000645   26.580889 H          1 MOL1         0.3624
      26    H18     19.614192   17.210811   26.634291 H          1 MOL1         0.3624
@<TRIPOS>BOND
    1     1     2    1
    2     1     3    1
    3     1     4    1
    4     1     5    1
    5     5     6    1
    6     5     7    1
    7     5     8    1
    8     8     9    1
    9     8    10    1
   10     8    11    1
   11    11    12    1
   12    11    13    1
   13    11    14    1
   14    14    15    1
   15    14    16    1
   16    14    17    1
   17    17    18    1
   18    17    19    1
   19    17    20    1
   20    20    21    1
   21    20    22    1
   22    20    23    1
   23    23    24    1
   24    23    25    1
   25    23    26    1
@<TRIPOS>SUBSTRUCTURE
       1 MOL1            1 RESIDUE      1      MOL     
@<SCITEGIC>MOL_PROPERTY
VM2 Rank
SciTegic.value.IntegerValue
47

@<SCITEGIC>MOL_PROPERTY
Conf_Id
SciTegic.value.IntegerValue
839

@<SCITEGIC>MOL_PROPERTY
Probability
SciTegic.value.DoubleValue
0.61

@<SCITEGIC>MOL_PROPERTY
Sum Probability
SciTegic.value.DoubleValue
83.74

@<SCITEGIC>MOL_PROPERTY
Delta G
SciTegic.value.DoubleValue
1.514

@<SCITEGIC>MOL_PROPERTY
G
SciTegic.value.DoubleValue
49.776

@<SCITEGIC>MOL_PROPERTY
E
SciTegic.value.DoubleValue
17.075

@<SCITEGIC>MOL_PROPERTY
-TS
SciTegic.value.DoubleValue
32.701

@<SCITEGIC>MOL_PROPERTY
U+W
SciTegic.value.DoubleValue
-4.387

@<SCITEGIC>MOL_PROPERTY
U
SciTegic.value.DoubleValue
49.228

@<SCITEGIC>MOL_PROPERTY
W
SciTegic.value.DoubleValue
-53.615

@<SCITEGIC>MOL_PROPERTY
W(PB)
SciTegic.value.DoubleValue
-55.904

@<SCITEGIC>MOL_PROPERTY
W(SA)
SciTegic.value.DoubleValue
2.288

@<SCITEGIC>MOL_PROPERTY
Valence
SciTegic.value.DoubleValue
3.267

@<SCITEGIC>MOL_PROPERTY
Coulomb
SciTegic.value.DoubleValue
45.067

@<SCITEGIC>MOL_PROPERTY
VdW
SciTegic.value.DoubleValue
0.893

@<SCITEGIC>MOL_PROPERTY
VdW6
SciTegic.value.DoubleValue
-7.615

@<SCITEGIC>MOL_PROPERTY
VdW12
SciTegic.value.DoubleValue
8.509

@<SCITEGIC>MOL_PROPERTY
Bond
SciTegic.value.DoubleValue
0.224

@<SCITEGIC>MOL_PROPERTY
Angle
SciTegic.value.DoubleValue
0.867

@<SCITEGIC>MOL_PROPERTY
Pdih
SciTegic.value.DoubleValue
2.176

@<SCITEGIC>MOL_PROPERTY
Idih
SciTegic.value.DoubleValue
0.000

@<SCITEGIC>MOL_PROPERTY
Tether
SciTegic.value.DoubleValue
0.000

@<TRIPOS>MOLECULE
guest-s14_vm2.mol2 : vm2 ligand conformer 48
          26          25           1
SMALL
USER_CHARGES
 
@<TRIPOS>ATOM
       1    C1      18.670701   19.466167   20.286807 C.3        1 MOL1        -0.2400
       2    H1      18.670266   20.546274   20.482701 H          1 MOL1         0.0971
       3    H2      18.193474   19.301713   19.312058 H          1 MOL1         0.0971
       4    H3      18.046389   18.978267   21.045488 H          1 MOL1         0.0971
       5    C2      20.109625   18.901874   20.286217 C.3        1 MOL1        -0.1385
       6    H4      20.656646   19.328696   19.433938 H          1 MOL1         0.0960
       7    H5      20.080768   17.815914   20.120069 H          1 MOL1         0.0960
       8    C3      20.893314   19.212248   21.584393 C.3        1 MOL1        -0.1409
       9    H6      21.931436   18.877114   21.452931 H          1 MOL1         0.0960
      10    H7      20.936467   20.299684   21.735465 H          1 MOL1         0.0960
      11    C4      20.298054   18.533541   22.841308 C.3        1 MOL1        -0.1409
      12    H8      20.213325   17.451946   22.667927 H          1 MOL1         0.0960
      13    H9      19.282429   18.910061   23.015259 H          1 MOL1         0.0960
      14    C5      21.168197   18.788554   24.095459 C.3        1 MOL1        -0.1409
      15    H10     22.193285   18.445344   23.898734 H          1 MOL1         0.0960
      16    H11     21.239443   19.868007   24.284619 H          1 MOL1         0.0960
      17    C6      20.641933   18.064998   25.360442 C.3        1 MOL1        -0.1450
      18    H12     21.327605   18.252697   26.197354 H          1 MOL1         0.0960
      19    H13     20.657563   16.980361   25.189629 H          1 MOL1         0.0960
      20    C7      19.215400   18.479791   25.774651 C.3        1 MOL1         0.0172
      21    H14     18.514741   18.252972   24.967026 H          1 MOL1         0.0934
      22    H15     18.912971   17.908144   26.656273 H          1 MOL1         0.0934
      23    N1      19.083776   19.951827   26.111724 N.4        1 MOL1        -0.5956
      24    H16     18.127059   20.195078   26.390450 H          1 MOL1         0.3624
      25    H17     19.325122   20.545014   25.311797 H          1 MOL1         0.3624
      26    H18     19.699253   20.221027   26.886083 H          1 MOL1         0.3624
@<TRIPOS>BOND
    1     1     2    1
    2     1     3    1
    3     1     4    1
    4     1     5    1
    5     5     6    1
    6     5     7    1
    7     5     8    1
    8     8     9    1
    9     8    10    1
   10     8    11    1
   11    11    12    1
   12    11    13    1
   13    11    14    1
   14    14    15    1
   15    14    16    1
   16    14    17    1
   17    17    18    1
   18    17    19    1
   19    17    20    1
   20    20    21    1
   21    20    22    1
   22    20    23    1
   23    23    24    1
   24    23    25    1
   25    23    26    1
@<TRIPOS>SUBSTRUCTURE
       1 MOL1            1 RESIDUE      1      MOL     
@<SCITEGIC>MOL_PROPERTY
VM2 Rank
SciTegic.value.IntegerValue
48

@<SCITEGIC>MOL_PROPERTY
Conf_Id
SciTegic.value.IntegerValue
1373

@<SCITEGIC>MOL_PROPERTY
Probability
SciTegic.value.DoubleValue
0.60

@<SCITEGIC>MOL_PROPERTY
Sum Probability
SciTegic.value.DoubleValue
84.34

@<SCITEGIC>MOL_PROPERTY
Delta G
SciTegic.value.DoubleValue
1.523

@<SCITEGIC>MOL_PROPERTY
G
SciTegic.value.DoubleValue
49.784

@<SCITEGIC>MOL_PROPERTY
E
SciTegic.value.DoubleValue
17.036

@<SCITEGIC>MOL_PROPERTY
-TS
SciTegic.value.DoubleValue
32.749

@<SCITEGIC>MOL_PROPERTY
U+W
SciTegic.value.DoubleValue
-4.426

@<SCITEGIC>MOL_PROPERTY
U
SciTegic.value.DoubleValue
49.414

@<SCITEGIC>MOL_PROPERTY
W
SciTegic.value.DoubleValue
-53.840

@<SCITEGIC>MOL_PROPERTY
W(PB)
SciTegic.value.DoubleValue
-56.134

@<SCITEGIC>MOL_PROPERTY
W(SA)
SciTegic.value.DoubleValue
2.294

@<SCITEGIC>MOL_PROPERTY
Valence
SciTegic.value.DoubleValue
3.043

@<SCITEGIC>MOL_PROPERTY
Coulomb
SciTegic.value.DoubleValue
45.606

@<SCITEGIC>MOL_PROPERTY
VdW
SciTegic.value.DoubleValue
0.765

@<SCITEGIC>MOL_PROPERTY
VdW6
SciTegic.value.DoubleValue
-7.758

@<SCITEGIC>MOL_PROPERTY
VdW12
SciTegic.value.DoubleValue
8.523

@<SCITEGIC>MOL_PROPERTY
Bond
SciTegic.value.DoubleValue
0.212

@<SCITEGIC>MOL_PROPERTY
Angle
SciTegic.value.DoubleValue
0.867

@<SCITEGIC>MOL_PROPERTY
Pdih
SciTegic.value.DoubleValue
1.964

@<SCITEGIC>MOL_PROPERTY
Idih
SciTegic.value.DoubleValue
0.000

@<SCITEGIC>MOL_PROPERTY
Tether
SciTegic.value.DoubleValue
0.000

@<TRIPOS>MOLECULE
guest-s14_vm2.mol2 : vm2 ligand conformer 49
          26          25           1
SMALL
USER_CHARGES
 
@<TRIPOS>ATOM
       1    C1      19.457893   19.995839   20.203508 C.3        1 MOL1        -0.2400
       2    H1      18.988390   19.313288   19.483343 H          1 MOL1         0.0971
       3    H2      18.750315   20.171200   21.023435 H          1 MOL1         0.0971
       4    H3      19.622778   20.956240   19.698253 H          1 MOL1         0.0971
       5    C2      20.794911   19.420841   20.723140 C.3        1 MOL1        -0.1385
       6    H4      21.235240   20.110373   21.455716 H          1 MOL1         0.0960
       7    H5      21.508129   19.374682   19.888359 H          1 MOL1         0.0960
       8    C3      20.659964   18.003038   21.334943 C.3        1 MOL1        -0.1409
       9    H6      20.334985   17.307246   20.549199 H          1 MOL1         0.0960
      10    H7      21.654315   17.657398   21.649463 H          1 MOL1         0.0960
      11    C4      19.683945   17.888642   22.534430 C.3        1 MOL1        -0.1409
      12    H8      19.663344   16.840594   22.863634 H          1 MOL1         0.0960
      13    H9      18.661738   18.122487   22.208625 H          1 MOL1         0.0960
      14    C5      20.070311   18.785903   23.734509 C.3        1 MOL1        -0.1409
      15    H10     21.110468   18.579883   24.019702 H          1 MOL1         0.0960
      16    H11     20.020850   19.842937   23.441313 H          1 MOL1         0.0960
      17    C6      19.136153   18.554575   24.945694 C.3        1 MOL1        -0.1450
      18    H12     19.199881   17.509450   25.276747 H          1 MOL1         0.0960
      19    H13     18.095268   18.723354   24.639037 H          1 MOL1         0.0960
      20    C7      19.453537   19.488912   26.129129 C.3        1 MOL1         0.0172
      21    H14     19.396083   20.530447   25.801560 H          1 MOL1         0.0934
      22    H15     18.712442   19.338475   26.918878 H          1 MOL1         0.0934
      23    N1      20.824287   19.261250   26.735647 N.4        1 MOL1        -0.5956
      24    H16     20.999310   19.889413   27.527534 H          1 MOL1         0.3624
      25    H17     21.572380   19.421897   26.054143 H          1 MOL1         0.3624
      26    H18     20.931934   18.303120   27.084087 H          1 MOL1         0.3624
@<TRIPOS>BOND
    1     1     2    1
    2     1     3    1
    3     1     4    1
    4     1     5    1
    5     5     6    1
    6     5     7    1
    7     5     8    1
    8     8     9    1
    9     8    10    1
   10     8    11    1
   11    11    12    1
   12    11    13    1
   13    11    14    1
   14    14    15    1
   15    14    16    1
   16    14    17    1
   17    17    18    1
   18    17    19    1
   19    17    20    1
   20    20    21    1
   21    20    22    1
   22    20    23    1
   23    23    24    1
   24    23    25    1
   25    23    26    1
@<TRIPOS>SUBSTRUCTURE
       1 MOL1            1 RESIDUE      1      MOL     
@<SCITEGIC>MOL_PROPERTY
VM2 Rank
SciTegic.value.IntegerValue
49

@<SCITEGIC>MOL_PROPERTY
Conf_Id
SciTegic.value.IntegerValue
1343

@<SCITEGIC>MOL_PROPERTY
Probability
SciTegic.value.DoubleValue
0.57

@<SCITEGIC>MOL_PROPERTY
Sum Probability
SciTegic.value.DoubleValue
84.91

@<SCITEGIC>MOL_PROPERTY
Delta G
SciTegic.value.DoubleValue
1.550

@<SCITEGIC>MOL_PROPERTY
G
SciTegic.value.DoubleValue
49.811

@<SCITEGIC>MOL_PROPERTY
E
SciTegic.value.DoubleValue
16.924

@<SCITEGIC>MOL_PROPERTY
-TS
SciTegic.value.DoubleValue
32.887

@<SCITEGIC>MOL_PROPERTY
U+W
SciTegic.value.DoubleValue
-4.538

@<SCITEGIC>MOL_PROPERTY
U
SciTegic.value.DoubleValue
49.147

@<SCITEGIC>MOL_PROPERTY
W
SciTegic.value.DoubleValue
-53.685

@<SCITEGIC>MOL_PROPERTY
W(PB)
SciTegic.value.DoubleValue
-55.961

@<SCITEGIC>MOL_PROPERTY
W(SA)
SciTegic.value.DoubleValue
2.275

@<SCITEGIC>MOL_PROPERTY
Valence
SciTegic.value.DoubleValue
3.219

@<SCITEGIC>MOL_PROPERTY
Coulomb
SciTegic.value.DoubleValue
45.149

@<SCITEGIC>MOL_PROPERTY
VdW
SciTegic.value.DoubleValue
0.779

@<SCITEGIC>MOL_PROPERTY
VdW6
SciTegic.value.DoubleValue
-7.884

@<SCITEGIC>MOL_PROPERTY
VdW12
SciTegic.value.DoubleValue
8.663

@<SCITEGIC>MOL_PROPERTY
Bond
SciTegic.value.DoubleValue
0.228

@<SCITEGIC>MOL_PROPERTY
Angle
SciTegic.value.DoubleValue
1.077

@<SCITEGIC>MOL_PROPERTY
Pdih
SciTegic.value.DoubleValue
1.914

@<SCITEGIC>MOL_PROPERTY
Idih
SciTegic.value.DoubleValue
0.000

@<SCITEGIC>MOL_PROPERTY
Tether
SciTegic.value.DoubleValue
0.000

@<TRIPOS>MOLECULE
guest-s14_vm2.mol2 : vm2 ligand conformer 50
          26          25           1
SMALL
USER_CHARGES
 
@<TRIPOS>ATOM
       1    C1      19.129356   19.084236   19.579721 C.3        1 MOL1        -0.2400
       2    H1      18.134440   19.371818   19.943943 H          1 MOL1         0.0971
       3    H2      19.647790   19.993121   19.247474 H          1 MOL1         0.0971
       4    H3      18.993297   18.435069   18.705020 H          1 MOL1         0.0971
       5    C2      19.933600   18.357083   20.678161 C.3        1 MOL1        -0.1385
       6    H4      20.908853   18.051758   20.273762 H          1 MOL1         0.0960
       7    H5      19.407358   17.436204   20.966187 H          1 MOL1         0.0960
       8    C3      20.140257   19.249941   21.921637 C.3        1 MOL1        -0.1409
       9    H6      20.668445   20.168058   21.629653 H          1 MOL1         0.0960
      10    H7      19.159744   19.555108   22.310014 H          1 MOL1         0.0960
      11    C4      20.942355   18.520418   23.025706 C.3        1 MOL1        -0.1409
      12    H8      21.890123   18.161859   22.600875 H          1 MOL1         0.0960
      13    H9      20.396685   17.623566   23.347907 H          1 MOL1         0.0960
      14    C5      21.264271   19.415420   24.250358 C.3        1 MOL1        -0.1409
      15    H10     21.880420   18.842065   24.955948 H          1 MOL1         0.0960
      16    H11     21.891506   20.256598   23.924505 H          1 MOL1         0.0960
      17    C6      20.023422   19.976108   24.993774 C.3        1 MOL1        -0.1450
      18    H12     19.496795   20.689834   24.347481 H          1 MOL1         0.0960
      19    H13     20.356242   20.552712   25.866968 H          1 MOL1         0.0960
      20    C7      19.027398   18.893128   25.454630 C.3        1 MOL1         0.0172
      21    H14     18.170184   19.369463   25.938107 H          1 MOL1         0.0934
      22    H15     18.662454   18.335123   24.588388 H          1 MOL1         0.0934
      23    N1      19.620341   17.902665   26.437014 N.4        1 MOL1        -0.5956
      24    H16     20.417495   17.401776   26.032638 H          1 MOL1         0.3624
      25    H17     18.935271   17.196673   26.727436 H          1 MOL1         0.3624
      26    H18     19.953555   18.365457   27.288854 H          1 MOL1         0.3624
@<TRIPOS>BOND
    1     1     2    1
    2     1     3    1
    3     1     4    1
    4     1     5    1
    5     5     6    1
    6     5     7    1
    7     5     8    1
    8     8     9    1
    9     8    10    1
   10     8    11    1
   11    11    12    1
   12    11    13    1
   13    11    14    1
   14    14    15    1
   15    14    16    1
   16    14    17    1
   17    17    18    1
   18    17    19    1
   19    17    20    1
   20    20    21    1
   21    20    22    1
   22    20    23    1
   23    23    24    1
   24    23    25    1
   25    23    26    1
@<TRIPOS>SUBSTRUCTURE
       1 MOL1            1 RESIDUE      1      MOL     
@<SCITEGIC>MOL_PROPERTY
VM2 Rank
SciTegic.value.IntegerValue
50

@<SCITEGIC>MOL_PROPERTY
Conf_Id
SciTegic.value.IntegerValue
172

@<SCITEGIC>MOL_PROPERTY
Probability
SciTegic.value.DoubleValue
0.57

@<SCITEGIC>MOL_PROPERTY
Sum Probability
SciTegic.value.DoubleValue
85.48

@<SCITEGIC>MOL_PROPERTY
Delta G
SciTegic.value.DoubleValue
1.553

@<SCITEGIC>MOL_PROPERTY
G
SciTegic.value.DoubleValue
49.815

@<SCITEGIC>MOL_PROPERTY
E
SciTegic.value.DoubleValue
16.915

@<SCITEGIC>MOL_PROPERTY
-TS
SciTegic.value.DoubleValue
32.900

@<SCITEGIC>MOL_PROPERTY
U+W
SciTegic.value.DoubleValue
-4.547

@<SCITEGIC>MOL_PROPERTY
U
SciTegic.value.DoubleValue
49.197

@<SCITEGIC>MOL_PROPERTY
W
SciTegic.value.DoubleValue
-53.744

@<SCITEGIC>MOL_PROPERTY
W(PB)
SciTegic.value.DoubleValue
-56.032

@<SCITEGIC>MOL_PROPERTY
W(SA)
SciTegic.value.DoubleValue
2.288

@<SCITEGIC>MOL_PROPERTY
Valence
SciTegic.value.DoubleValue
3.018

@<SCITEGIC>MOL_PROPERTY
Coulomb
SciTegic.value.DoubleValue
45.589

@<SCITEGIC>MOL_PROPERTY
VdW
SciTegic.value.DoubleValue
0.590

@<SCITEGIC>MOL_PROPERTY
VdW6
SciTegic.value.DoubleValue
-8.073

@<SCITEGIC>MOL_PROPERTY
VdW12
SciTegic.value.DoubleValue
8.663

@<SCITEGIC>MOL_PROPERTY
Bond
SciTegic.value.DoubleValue
0.221

@<SCITEGIC>MOL_PROPERTY
Angle
SciTegic.value.DoubleValue
0.958

@<SCITEGIC>MOL_PROPERTY
Pdih
SciTegic.value.DoubleValue
1.839

@<SCITEGIC>MOL_PROPERTY
Idih
SciTegic.value.DoubleValue
0.000

@<SCITEGIC>MOL_PROPERTY
Tether
SciTegic.value.DoubleValue
0.000

@<TRIPOS>MOLECULE
guest-s14_vm2.mol2 : vm2 ligand conformer 51
          26          25           1
SMALL
USER_CHARGES
 
@<TRIPOS>ATOM
       1    C1      21.018475   19.404974   19.760331 C.3        1 MOL1        -0.2400
       2    H1      21.214761   20.435987   20.082035 H          1 MOL1         0.0971
       3    H2      21.787643   18.755924   20.197016 H          1 MOL1         0.0971
       4    H3      21.133936   19.365854   18.669433 H          1 MOL1         0.0971
       5    C2      19.597661   18.955827   20.170449 C.3        1 MOL1        -0.1385
       6    H4      19.435519   17.914079   19.860271 H          1 MOL1         0.0960
       7    H5      18.862187   19.558514   19.619424 H          1 MOL1         0.0960
       8    C3      19.322771   19.099792   21.686741 C.3        1 MOL1        -0.1409
       9    H6      19.457214   20.150130   21.976453 H          1 MOL1         0.0960
      10    H7      18.267911   18.856999   21.874958 H          1 MOL1         0.0960
      11    C4      20.217701   18.185808   22.561626 C.3        1 MOL1        -0.1409
      12    H8      21.267410   18.497784   22.481197 H          1 MOL1         0.0960
      13    H9      20.168574   17.159619   22.172189 H          1 MOL1         0.0960
      14    C5      19.806479   18.163882   24.054435 C.3        1 MOL1        -0.1409
      15    H10     18.761641   17.835574   24.143564 H          1 MOL1         0.0960
      16    H11     20.413091   17.404222   24.564833 H          1 MOL1         0.0960
      17    C6      19.986708   19.529209   24.764366 C.3        1 MOL1        -0.1450
      18    H12     19.352481   20.284453   24.283849 H          1 MOL1         0.0960
      19    H13     21.023492   19.875044   24.658275 H          1 MOL1         0.0960
      20    C7      19.612838   19.475905   26.258376 C.3        1 MOL1         0.0172
      21    H14     19.666269   20.482934   26.680978 H          1 MOL1         0.0934
      22    H15     18.586951   19.114193   26.368490 H          1 MOL1         0.0934
      23    N1      20.518367   18.583604   27.084676 N.4        1 MOL1        -0.5956
      24    H16     20.250952   18.582588   28.075029 H          1 MOL1         0.3624
      25    H17     21.496538   18.887099   27.039096 H          1 MOL1         0.3624
      26    H18     20.487634   17.610615   26.764982 H          1 MOL1         0.3624
@<TRIPOS>BOND
    1     1     2    1
    2     1     3    1
    3     1     4    1
    4     1     5    1
    5     5     6    1
    6     5     7    1
    7     5     8    1
    8     8     9    1
    9     8    10    1
   10     8    11    1
   11    11    12    1
   12    11    13    1
   13    11    14    1
   14    14    15    1
   15    14    16    1
   16    14    17    1
   17    17    18    1
   18    17    19    1
   19    17    20    1
   20    20    21    1
   21    20    22    1
   22    20    23    1
   23    23    24    1
   24    23    25    1
   25    23    26    1
@<TRIPOS>SUBSTRUCTURE
       1 MOL1            1 RESIDUE      1      MOL     
@<SCITEGIC>MOL_PROPERTY
VM2 Rank
SciTegic.value.IntegerValue
51

@<SCITEGIC>MOL_PROPERTY
Conf_Id
SciTegic.value.IntegerValue
727

@<SCITEGIC>MOL_PROPERTY
Probability
SciTegic.value.DoubleValue
0.55

@<SCITEGIC>MOL_PROPERTY
Sum Probability
SciTegic.value.DoubleValue
86.03

@<SCITEGIC>MOL_PROPERTY
Delta G
SciTegic.value.DoubleValue
1.577

@<SCITEGIC>MOL_PROPERTY
G
SciTegic.value.DoubleValue
49.839

@<SCITEGIC>MOL_PROPERTY
E
SciTegic.value.DoubleValue
17.164

@<SCITEGIC>MOL_PROPERTY
-TS
SciTegic.value.DoubleValue
32.675

@<SCITEGIC>MOL_PROPERTY
U+W
SciTegic.value.DoubleValue
-4.298

@<SCITEGIC>MOL_PROPERTY
U
SciTegic.value.DoubleValue
49.153

@<SCITEGIC>MOL_PROPERTY
W
SciTegic.value.DoubleValue
-53.451

@<SCITEGIC>MOL_PROPERTY
W(PB)
SciTegic.value.DoubleValue
-55.735

@<SCITEGIC>MOL_PROPERTY
W(SA)
SciTegic.value.DoubleValue
2.284

@<SCITEGIC>MOL_PROPERTY
Valence
SciTegic.value.DoubleValue
3.298

@<SCITEGIC>MOL_PROPERTY
Coulomb
SciTegic.value.DoubleValue
44.906

@<SCITEGIC>MOL_PROPERTY
VdW
SciTegic.value.DoubleValue
0.948

@<SCITEGIC>MOL_PROPERTY
VdW6
SciTegic.value.DoubleValue
-7.574

@<SCITEGIC>MOL_PROPERTY
VdW12
SciTegic.value.DoubleValue
8.523

@<SCITEGIC>MOL_PROPERTY
Bond
SciTegic.value.DoubleValue
0.229

@<SCITEGIC>MOL_PROPERTY
Angle
SciTegic.value.DoubleValue
0.912

@<SCITEGIC>MOL_PROPERTY
Pdih
SciTegic.value.DoubleValue
2.157

@<SCITEGIC>MOL_PROPERTY
Idih
SciTegic.value.DoubleValue
0.000

@<SCITEGIC>MOL_PROPERTY
Tether
SciTegic.value.DoubleValue
0.000

@<TRIPOS>MOLECULE
guest-s14_vm2.mol2 : vm2 ligand conformer 52
          26          25           1
SMALL
USER_CHARGES
 
@<TRIPOS>ATOM
       1    C1      19.773325   17.595727   20.451520 C.3        1 MOL1        -0.2400
       2    H1      20.115680   17.102526   21.369793 H          1 MOL1         0.0971
       3    H2      18.997515   16.960582   20.004814 H          1 MOL1         0.0971
       4    H3      20.616280   17.640628   19.749837 H          1 MOL1         0.0971
       5    C2      19.216425   19.007878   20.741304 C.3        1 MOL1        -0.1385
       6    H4      18.388328   18.939778   21.459329 H          1 MOL1         0.0960
       7    H5      18.779498   19.412029   19.817492 H          1 MOL1         0.0960
       8    C3      20.290371   20.001191   21.253934 C.3        1 MOL1        -0.1409
       9    H6      21.041374   20.149023   20.465726 H          1 MOL1         0.0960
      10    H7      19.819997   20.982063   21.408135 H          1 MOL1         0.0960
      11    C4      21.015873   19.579689   22.557993 C.3        1 MOL1        -0.1409
      12    H8      21.758459   20.351244   22.803820 H          1 MOL1         0.0960
      13    H9      21.585499   18.656472   22.387821 H          1 MOL1         0.0960
      14    C5      20.063972   19.393255   23.763721 C.3        1 MOL1        -0.1409
      15    H10     19.466257   20.304590   23.903552 H          1 MOL1         0.0960
      16    H11     19.361007   18.577299   23.554325 H          1 MOL1         0.0960
      17    C6      20.841920   19.082187   25.064231 C.3        1 MOL1        -0.1450
      18    H12     21.566281   19.884963   25.255973 H          1 MOL1         0.0960
      19    H13     21.422903   18.158180   24.943236 H          1 MOL1         0.0960
      20    C7      19.920970   18.953869   26.292958 C.3        1 MOL1         0.0172
      21    H14     20.530847   18.821498   27.190778 H          1 MOL1         0.0934
      22    H15     19.334901   19.869295   26.410932 H          1 MOL1         0.0934
      23    N1      18.958143   17.785205   26.215339 N.4        1 MOL1        -0.5956
      24    H16     18.327457   17.865534   25.411841 H          1 MOL1         0.3624
      25    H17     18.370108   17.720497   27.053412 H          1 MOL1         0.3624
      26    H18     19.451455   16.890951   26.126105 H          1 MOL1         0.3624
@<TRIPOS>BOND
    1     1     2    1
    2     1     3    1
    3     1     4    1
    4     1     5    1
    5     5     6    1
    6     5     7    1
    7     5     8    1
    8     8     9    1
    9     8    10    1
   10     8    11    1
   11    11    12    1
   12    11    13    1
   13    11    14    1
   14    14    15    1
   15    14    16    1
   16    14    17    1
   17    17    18    1
   18    17    19    1
   19    17    20    1
   20    20    21    1
   21    20    22    1
   22    20    23    1
   23    23    24    1
   24    23    25    1
   25    23    26    1
@<TRIPOS>SUBSTRUCTURE
       1 MOL1            1 RESIDUE      1      MOL     
@<SCITEGIC>MOL_PROPERTY
VM2 Rank
SciTegic.value.IntegerValue
52

@<SCITEGIC>MOL_PROPERTY
Conf_Id
SciTegic.value.IntegerValue
1215

@<SCITEGIC>MOL_PROPERTY
Probability
SciTegic.value.DoubleValue
0.55

@<SCITEGIC>MOL_PROPERTY
Sum Probability
SciTegic.value.DoubleValue
86.58

@<SCITEGIC>MOL_PROPERTY
Delta G
SciTegic.value.DoubleValue
1.577

@<SCITEGIC>MOL_PROPERTY
G
SciTegic.value.DoubleValue
49.839

@<SCITEGIC>MOL_PROPERTY
E
SciTegic.value.DoubleValue
16.948

@<SCITEGIC>MOL_PROPERTY
-TS
SciTegic.value.DoubleValue
32.890

@<SCITEGIC>MOL_PROPERTY
U+W
SciTegic.value.DoubleValue
-4.513

@<SCITEGIC>MOL_PROPERTY
U
SciTegic.value.DoubleValue
49.426

@<SCITEGIC>MOL_PROPERTY
W
SciTegic.value.DoubleValue
-53.940

@<SCITEGIC>MOL_PROPERTY
W(PB)
SciTegic.value.DoubleValue
-56.204

@<SCITEGIC>MOL_PROPERTY
W(SA)
SciTegic.value.DoubleValue
2.264

@<SCITEGIC>MOL_PROPERTY
Valence
SciTegic.value.DoubleValue
3.214

@<SCITEGIC>MOL_PROPERTY
Coulomb
SciTegic.value.DoubleValue
45.444

@<SCITEGIC>MOL_PROPERTY
VdW
SciTegic.value.DoubleValue
0.768

@<SCITEGIC>MOL_PROPERTY
VdW6
SciTegic.value.DoubleValue
-7.916

@<SCITEGIC>MOL_PROPERTY
VdW12
SciTegic.value.DoubleValue
8.684

@<SCITEGIC>MOL_PROPERTY
Bond
SciTegic.value.DoubleValue
0.230

@<SCITEGIC>MOL_PROPERTY
Angle
SciTegic.value.DoubleValue
1.079

@<SCITEGIC>MOL_PROPERTY
Pdih
SciTegic.value.DoubleValue
1.906

@<SCITEGIC>MOL_PROPERTY
Idih
SciTegic.value.DoubleValue
0.000

@<SCITEGIC>MOL_PROPERTY
Tether
SciTegic.value.DoubleValue
0.000

@<TRIPOS>MOLECULE
guest-s14_vm2.mol2 : vm2 ligand conformer 53
          26          25           1
SMALL
USER_CHARGES
 
@<TRIPOS>ATOM
       1    C1      19.337473   18.296448   19.704165 C.3        1 MOL1        -0.2400
       2    H1      19.611063   17.320663   20.124370 H          1 MOL1         0.0971
       3    H2      18.298470   18.512959   19.984531 H          1 MOL1         0.0971
       4    H3      19.378867   18.208382   18.610798 H          1 MOL1         0.0971
       5    C2      20.289037   19.411661   20.193523 C.3        1 MOL1        -0.1385
       6    H4      20.050096   20.341716   19.659027 H          1 MOL1         0.0960
       7    H5      21.323944   19.159220   19.923378 H          1 MOL1         0.0960
       8    C3      20.194206   19.674462   21.715818 C.3        1 MOL1        -0.1409
       9    H6      20.822755   20.541810   21.960232 H          1 MOL1         0.0960
      10    H7      19.163226   19.956276   21.966571 H          1 MOL1         0.0960
      11    C4      20.641465   18.465303   22.575810 C.3        1 MOL1        -0.1409
      12    H8      21.621423   18.117750   22.220807 H          1 MOL1         0.0960
      13    H9      19.946418   17.626643   22.437092 H          1 MOL1         0.0960
      14    C5      20.753579   18.788595   24.086102 C.3        1 MOL1        -0.1409
      15    H10     21.189455   17.916328   24.590808 H          1 MOL1         0.0960
      16    H11     21.461180   19.616187   24.233788 H          1 MOL1         0.0960
      17    C6      19.395675   19.139372   24.744619 C.3        1 MOL1        -0.1450
      18    H12     18.675947   18.326585   24.579848 H          1 MOL1         0.0960
      19    H13     18.973285   20.034332   24.271153 H          1 MOL1         0.0960
      20    C7      19.521875   19.415954   26.255336 C.3        1 MOL1         0.0172
      21    H14     20.251656   20.212409   26.424102 H          1 MOL1         0.0934
      22    H15     18.556206   19.750717   26.643889 H          1 MOL1         0.0934
      23    N1      19.947689   18.207205   27.065627 N.4        1 MOL1        -0.5956
      24    H16     20.868422   17.861886   26.777763 H          1 MOL1         0.3624
      25    H17     19.287139   17.429640   26.965274 H          1 MOL1         0.3624
      26    H18     20.007454   18.422061   28.066915 H          1 MOL1         0.3624
@<TRIPOS>BOND
    1     1     2    1
    2     1     3    1
    3     1     4    1
    4     1     5    1
    5     5     6    1
    6     5     7    1
    7     5     8    1
    8     8     9    1
    9     8    10    1
   10     8    11    1
   11    11    12    1
   12    11    13    1
   13    11    14    1
   14    14    15    1
   15    14    16    1
   16    14    17    1
   17    17    18    1
   18    17    19    1
   19    17    20    1
   20    20    21    1
   21    20    22    1
   22    20    23    1
   23    23    24    1
   24    23    25    1
   25    23    26    1
@<TRIPOS>SUBSTRUCTURE
       1 MOL1            1 RESIDUE      1      MOL     
@<SCITEGIC>MOL_PROPERTY
VM2 Rank
SciTegic.value.IntegerValue
53

@<SCITEGIC>MOL_PROPERTY
Conf_Id
SciTegic.value.IntegerValue
240

@<SCITEGIC>MOL_PROPERTY
Probability
SciTegic.value.DoubleValue
0.52

@<SCITEGIC>MOL_PROPERTY
Sum Probability
SciTegic.value.DoubleValue
87.10

@<SCITEGIC>MOL_PROPERTY
Delta G
SciTegic.value.DoubleValue
1.602

@<SCITEGIC>MOL_PROPERTY
G
SciTegic.value.DoubleValue
49.864

@<SCITEGIC>MOL_PROPERTY
E
SciTegic.value.DoubleValue
17.189

@<SCITEGIC>MOL_PROPERTY
-TS
SciTegic.value.DoubleValue
32.675

@<SCITEGIC>MOL_PROPERTY
U+W
SciTegic.value.DoubleValue
-4.273

@<SCITEGIC>MOL_PROPERTY
U
SciTegic.value.DoubleValue
49.153

@<SCITEGIC>MOL_PROPERTY
W
SciTegic.value.DoubleValue
-53.426

@<SCITEGIC>MOL_PROPERTY
W(PB)
SciTegic.value.DoubleValue
-55.726

@<SCITEGIC>MOL_PROPERTY
W(SA)
SciTegic.value.DoubleValue
2.300

@<SCITEGIC>MOL_PROPERTY
Valence
SciTegic.value.DoubleValue
3.298

@<SCITEGIC>MOL_PROPERTY
Coulomb
SciTegic.value.DoubleValue
44.907

@<SCITEGIC>MOL_PROPERTY
VdW
SciTegic.value.DoubleValue
0.948

@<SCITEGIC>MOL_PROPERTY
VdW6
SciTegic.value.DoubleValue
-7.574

@<SCITEGIC>MOL_PROPERTY
VdW12
SciTegic.value.DoubleValue
8.522

@<SCITEGIC>MOL_PROPERTY
Bond
SciTegic.value.DoubleValue
0.229

@<SCITEGIC>MOL_PROPERTY
Angle
SciTegic.value.DoubleValue
0.912

@<SCITEGIC>MOL_PROPERTY
Pdih
SciTegic.value.DoubleValue
2.157

@<SCITEGIC>MOL_PROPERTY
Idih
SciTegic.value.DoubleValue
0.000

@<SCITEGIC>MOL_PROPERTY
Tether
SciTegic.value.DoubleValue
0.000

@<TRIPOS>MOLECULE
guest-s14_vm2.mol2 : vm2 ligand conformer 54
          26          25           1
SMALL
USER_CHARGES
 
@<TRIPOS>ATOM
       1    C1      19.602350   20.006570   19.741678 C.3        1 MOL1        -0.2400
       2    H1      19.640396   19.271887   18.926815 H          1 MOL1         0.0971
       3    H2      18.548059   20.200147   19.978747 H          1 MOL1         0.0971
       4    H3      20.042073   20.942095   19.372288 H          1 MOL1         0.0971
       5    C2      20.365543   19.498770   20.983341 C.3        1 MOL1        -0.1385
       6    H4      20.339180   20.275068   21.759595 H          1 MOL1         0.0960
       7    H5      21.421869   19.342564   20.723689 H          1 MOL1         0.0960
       8    C3      19.760997   18.182202   21.525418 C.3        1 MOL1        -0.1409
       9    H6      18.717437   18.347503   21.823840 H          1 MOL1         0.0960
      10    H7      19.726858   17.444480   20.711889 H          1 MOL1         0.0960
      11    C4      20.561046   17.569446   22.704189 C.3        1 MOL1        -0.1409
      12    H8      21.562716   17.293227   22.347008 H          1 MOL1         0.0960
      13    H9      20.080270   16.628297   23.004662 H          1 MOL1         0.0960
      14    C5      20.711968   18.477071   23.952663 C.3        1 MOL1        -0.1409
      15    H10     21.306779   17.931808   24.697201 H          1 MOL1         0.0960
      16    H11     21.295233   19.371948   23.698237 H          1 MOL1         0.0960
      17    C6      19.359327   18.895484   24.581525 C.3        1 MOL1        -0.1450
      18    H12     18.763239   18.004736   24.820176 H          1 MOL1         0.0960
      19    H13     18.778098   19.478574   23.856291 H          1 MOL1         0.0960
      20    C7      19.533598   19.753407   25.849609 C.3        1 MOL1         0.0172
      21    H14     20.143024   20.631430   25.619251 H          1 MOL1         0.0934
      22    H15     18.553716   20.098628   26.190493 H          1 MOL1         0.0934
      23    N1      20.186170   19.016050   27.002577 N.4        1 MOL1        -0.5956
      24    H16     20.273499   19.610575   27.833960 H          1 MOL1         0.3624
      25    H17     21.129281   18.695001   26.763223 H          1 MOL1         0.3624
      26    H18     19.646142   18.190166   27.280569 H          1 MOL1         0.3624
@<TRIPOS>BOND
    1     1     2    1
    2     1     3    1
    3     1     4    1
    4     1     5    1
    5     5     6    1
    6     5     7    1
    7     5     8    1
    8     8     9    1
    9     8    10    1
   10     8    11    1
   11    11    12    1
   12    11    13    1
   13    11    14    1
   14    14    15    1
   15    14    16    1
   16    14    17    1
   17    17    18    1
   18    17    19    1
   19    17    20    1
   20    20    21    1
   21    20    22    1
   22    20    23    1
   23    23    24    1
   24    23    25    1
   25    23    26    1
@<TRIPOS>SUBSTRUCTURE
       1 MOL1            1 RESIDUE      1      MOL     
@<SCITEGIC>MOL_PROPERTY
VM2 Rank
SciTegic.value.IntegerValue
54

@<SCITEGIC>MOL_PROPERTY
Conf_Id
SciTegic.value.IntegerValue
429

@<SCITEGIC>MOL_PROPERTY
Probability
SciTegic.value.DoubleValue
0.52

@<SCITEGIC>MOL_PROPERTY
Sum Probability
SciTegic.value.DoubleValue
87.62

@<SCITEGIC>MOL_PROPERTY
Delta G
SciTegic.value.DoubleValue
1.612

@<SCITEGIC>MOL_PROPERTY
G
SciTegic.value.DoubleValue
49.873

@<SCITEGIC>MOL_PROPERTY
E
SciTegic.value.DoubleValue
16.983

@<SCITEGIC>MOL_PROPERTY
-TS
SciTegic.value.DoubleValue
32.890

@<SCITEGIC>MOL_PROPERTY
U+W
SciTegic.value.DoubleValue
-4.479

@<SCITEGIC>MOL_PROPERTY
U
SciTegic.value.DoubleValue
49.231

@<SCITEGIC>MOL_PROPERTY
W
SciTegic.value.DoubleValue
-53.710

@<SCITEGIC>MOL_PROPERTY
W(PB)
SciTegic.value.DoubleValue
-55.983

@<SCITEGIC>MOL_PROPERTY
W(SA)
SciTegic.value.DoubleValue
2.273

@<SCITEGIC>MOL_PROPERTY
Valence
SciTegic.value.DoubleValue
3.276

@<SCITEGIC>MOL_PROPERTY
Coulomb
SciTegic.value.DoubleValue
45.175

@<SCITEGIC>MOL_PROPERTY
VdW
SciTegic.value.DoubleValue
0.779

@<SCITEGIC>MOL_PROPERTY
VdW6
SciTegic.value.DoubleValue
-7.944

@<SCITEGIC>MOL_PROPERTY
VdW12
SciTegic.value.DoubleValue
8.723

@<SCITEGIC>MOL_PROPERTY
Bond
SciTegic.value.DoubleValue
0.239

@<SCITEGIC>MOL_PROPERTY
Angle
SciTegic.value.DoubleValue
1.155

@<SCITEGIC>MOL_PROPERTY
Pdih
SciTegic.value.DoubleValue
1.883

@<SCITEGIC>MOL_PROPERTY
Idih
SciTegic.value.DoubleValue
0.000

@<SCITEGIC>MOL_PROPERTY
Tether
SciTegic.value.DoubleValue
0.000

@<TRIPOS>MOLECULE
guest-s14_vm2.mol2 : vm2 ligand conformer 55
          26          25           1
SMALL
USER_CHARGES
 
@<TRIPOS>ATOM
       1    C1      20.478551   19.513025   19.447668 C.3        1 MOL1        -0.2400
       2    H1      21.464030   19.758052   19.862346 H          1 MOL1         0.0971
       3    H2      20.627715   19.207658   18.403907 H          1 MOL1         0.0971
       4    H3      19.868581   20.425684   19.446152 H          1 MOL1         0.0971
       5    C2      19.788552   18.384408   20.247266 C.3        1 MOL1        -0.1385
       6    H4      20.433411   17.494671   20.263761 H          1 MOL1         0.0960
       7    H5      18.871225   18.088913   19.719049 H          1 MOL1         0.0960
       8    C3      19.417452   18.789409   21.694609 C.3        1 MOL1        -0.1409
       9    H6      18.771676   19.677945   21.672193 H          1 MOL1         0.0960
      10    H7      18.816418   17.980102   22.128056 H          1 MOL1         0.0960
      11    C4      20.650215   19.060586   22.594425 C.3        1 MOL1        -0.1409
      12    H8      21.252439   19.865086   22.153151 H          1 MOL1         0.0960
      13    H9      21.294379   18.170969   22.620115 H          1 MOL1         0.0960
      14    C5      20.284021   19.478225   24.040282 C.3        1 MOL1        -0.1409
      15    H10     21.205442   19.795424   24.546168 H          1 MOL1         0.0960
      16    H11     19.627914   20.359279   24.013773 H          1 MOL1         0.0960
      17    C6      19.611349   18.349771   24.862096 C.3        1 MOL1        -0.1450
      18    H12     20.249357   17.456083   24.867738 H          1 MOL1         0.0960
      19    H13     18.665170   18.057887   24.390344 H          1 MOL1         0.0960
      20    C7      19.306454   18.772360   26.312374 C.3        1 MOL1         0.0172
      21    H14     18.688062   19.674023   26.310881 H          1 MOL1         0.0934
      22    H15     18.746898   17.976318   26.811144 H          1 MOL1         0.0934
      23    N1      20.544407   19.051217   27.142279 N.4        1 MOL1        -0.5956
      24    H16     20.306066   19.314848   28.104574 H          1 MOL1         0.3624
      25    H17     21.099973   19.817807   26.750443 H          1 MOL1         0.3624
      26    H18     21.156993   18.231177   27.199642 H          1 MOL1         0.3624
@<TRIPOS>BOND
    1     1     2    1
    2     1     3    1
    3     1     4    1
    4     1     5    1
    5     5     6    1
    6     5     7    1
    7     5     8    1
    8     8     9    1
    9     8    10    1
   10     8    11    1
   11    11    12    1
   12    11    13    1
   13    11    14    1
   14    14    15    1
   15    14    16    1
   16    14    17    1
   17    17    18    1
   18    17    19    1
   19    17    20    1
   20    20    21    1
   21    20    22    1
   22    20    23    1
   23    23    24    1
   24    23    25    1
   25    23    26    1
@<TRIPOS>SUBSTRUCTURE
       1 MOL1            1 RESIDUE      1      MOL     
@<SCITEGIC>MOL_PROPERTY
VM2 Rank
SciTegic.value.IntegerValue
55

@<SCITEGIC>MOL_PROPERTY
Conf_Id
SciTegic.value.IntegerValue
1048

@<SCITEGIC>MOL_PROPERTY
Probability
SciTegic.value.DoubleValue
0.50

@<SCITEGIC>MOL_PROPERTY
Sum Probability
SciTegic.value.DoubleValue
88.11

@<SCITEGIC>MOL_PROPERTY
Delta G
SciTegic.value.DoubleValue
1.634

@<SCITEGIC>MOL_PROPERTY
G
SciTegic.value.DoubleValue
49.896

@<SCITEGIC>MOL_PROPERTY
E
SciTegic.value.DoubleValue
17.316

@<SCITEGIC>MOL_PROPERTY
-TS
SciTegic.value.DoubleValue
32.579

@<SCITEGIC>MOL_PROPERTY
U+W
SciTegic.value.DoubleValue
-4.146

@<SCITEGIC>MOL_PROPERTY
U
SciTegic.value.DoubleValue
49.323

@<SCITEGIC>MOL_PROPERTY
W
SciTegic.value.DoubleValue
-53.468

@<SCITEGIC>MOL_PROPERTY
W(PB)
SciTegic.value.DoubleValue
-55.770

@<SCITEGIC>MOL_PROPERTY
W(SA)
SciTegic.value.DoubleValue
2.301

@<SCITEGIC>MOL_PROPERTY
Valence
SciTegic.value.DoubleValue
3.408

@<SCITEGIC>MOL_PROPERTY
Coulomb
SciTegic.value.DoubleValue
44.893

@<SCITEGIC>MOL_PROPERTY
VdW
SciTegic.value.DoubleValue
1.021

@<SCITEGIC>MOL_PROPERTY
VdW6
SciTegic.value.DoubleValue
-7.482

@<SCITEGIC>MOL_PROPERTY
VdW12
SciTegic.value.DoubleValue
8.503

@<SCITEGIC>MOL_PROPERTY
Bond
SciTegic.value.DoubleValue
0.239

@<SCITEGIC>MOL_PROPERTY
Angle
SciTegic.value.DoubleValue
1.013

@<SCITEGIC>MOL_PROPERTY
Pdih
SciTegic.value.DoubleValue
2.156

@<SCITEGIC>MOL_PROPERTY
Idih
SciTegic.value.DoubleValue
0.000

@<SCITEGIC>MOL_PROPERTY
Tether
SciTegic.value.DoubleValue
0.000

@<TRIPOS>MOLECULE
guest-s14_vm2.mol2 : vm2 ligand conformer 56
          26          25           1
SMALL
USER_CHARGES
 
@<TRIPOS>ATOM
       1    C1      20.645836   20.370067   20.510416 C.3        1 MOL1        -0.2400
       2    H1      21.462028   20.690695   21.170750 H          1 MOL1         0.0971
       3    H2      20.865704   20.740393   19.500748 H          1 MOL1         0.0971
       4    H3      19.720991   20.855696   20.845549 H          1 MOL1         0.0971
       5    C2      20.508378   18.830641   20.503793 C.3        1 MOL1        -0.1385
       6    H4      21.410562   18.396157   20.050967 H          1 MOL1         0.0960
       7    H5      19.668684   18.537045   19.858472 H          1 MOL1         0.0960
       8    C3      20.320595   18.225981   21.915928 C.3        1 MOL1        -0.1409
       9    H6      20.338858   17.130593   21.832995 H          1 MOL1         0.0960
      10    H7      21.178345   18.505245   22.541870 H          1 MOL1         0.0960
      11    C4      18.999028   18.659962   22.598572 C.3        1 MOL1        -0.1409
      12    H8      18.163214   18.475296   21.909820 H          1 MOL1         0.0960
      13    H9      19.007308   19.741791   22.782792 H          1 MOL1         0.0960
      14    C5      18.714822   17.909158   23.925149 C.3        1 MOL1        -0.1409
      15    H10     17.747886   18.248365   24.321885 H          1 MOL1         0.0960
      16    H11     18.595416   16.837445   23.714448 H          1 MOL1         0.0960
      17    C6      19.796736   18.089169   25.019059 C.3        1 MOL1        -0.1450
      18    H12     20.739990   17.632318   24.693459 H          1 MOL1         0.0960
      19    H13     19.484814   17.542319   25.918765 H          1 MOL1         0.0960
      20    C7      20.034503   19.566223   25.384429 C.3        1 MOL1         0.0172
      21    H14     20.384956   20.111881   24.504377 H          1 MOL1         0.0934
      22    H15     19.096907   20.017851   25.719512 H          1 MOL1         0.0934
      23    N1      21.061102   19.747798   26.483654 N.4        1 MOL1        -0.5956
      24    H16     21.204387   20.737715   26.711335 H          1 MOL1         0.3624
      25    H17     21.975436   19.366655   26.219547 H          1 MOL1         0.3624
      26    H18     20.778293   19.280237   27.351155 H          1 MOL1         0.3624
@<TRIPOS>BOND
    1     1     2    1
    2     1     3    1
    3     1     4    1
    4     1     5    1
    5     5     6    1
    6     5     7    1
    7     5     8    1
    8     8     9    1
    9     8    10    1
   10     8    11    1
   11    11    12    1
   12    11    13    1
   13    11    14    1
   14    14    15    1
   15    14    16    1
   16    14    17    1
   17    17    18    1
   18    17    19    1
   19    17    20    1
   20    20    21    1
   21    20    22    1
   22    20    23    1
   23    23    24    1
   24    23    25    1
   25    23    26    1
@<TRIPOS>SUBSTRUCTURE
       1 MOL1            1 RESIDUE      1      MOL     
@<SCITEGIC>MOL_PROPERTY
VM2 Rank
SciTegic.value.IntegerValue
56

@<SCITEGIC>MOL_PROPERTY
Conf_Id
SciTegic.value.IntegerValue
802

@<SCITEGIC>MOL_PROPERTY
Probability
SciTegic.value.DoubleValue
0.50

@<SCITEGIC>MOL_PROPERTY
Sum Probability
SciTegic.value.DoubleValue
88.61

@<SCITEGIC>MOL_PROPERTY
Delta G
SciTegic.value.DoubleValue
1.635

@<SCITEGIC>MOL_PROPERTY
G
SciTegic.value.DoubleValue
49.897

@<SCITEGIC>MOL_PROPERTY
E
SciTegic.value.DoubleValue
17.076

@<SCITEGIC>MOL_PROPERTY
-TS
SciTegic.value.DoubleValue
32.821

@<SCITEGIC>MOL_PROPERTY
U+W
SciTegic.value.DoubleValue
-4.386

@<SCITEGIC>MOL_PROPERTY
U
SciTegic.value.DoubleValue
49.567

@<SCITEGIC>MOL_PROPERTY
W
SciTegic.value.DoubleValue
-53.953

@<SCITEGIC>MOL_PROPERTY
W(PB)
SciTegic.value.DoubleValue
-56.238

@<SCITEGIC>MOL_PROPERTY
W(SA)
SciTegic.value.DoubleValue
2.285

@<SCITEGIC>MOL_PROPERTY
Valence
SciTegic.value.DoubleValue
3.381

@<SCITEGIC>MOL_PROPERTY
Coulomb
SciTegic.value.DoubleValue
45.516

@<SCITEGIC>MOL_PROPERTY
VdW
SciTegic.value.DoubleValue
0.670

@<SCITEGIC>MOL_PROPERTY
VdW6
SciTegic.value.DoubleValue
-8.071

@<SCITEGIC>MOL_PROPERTY
VdW12
SciTegic.value.DoubleValue
8.741

@<SCITEGIC>MOL_PROPERTY
Bond
SciTegic.value.DoubleValue
0.231

@<SCITEGIC>MOL_PROPERTY
Angle
SciTegic.value.DoubleValue
1.069

@<SCITEGIC>MOL_PROPERTY
Pdih
SciTegic.value.DoubleValue
2.080

@<SCITEGIC>MOL_PROPERTY
Idih
SciTegic.value.DoubleValue
0.000

@<SCITEGIC>MOL_PROPERTY
Tether
SciTegic.value.DoubleValue
0.000

@<TRIPOS>MOLECULE
guest-s14_vm2.mol2 : vm2 ligand conformer 57
          26          25           1
SMALL
USER_CHARGES
 
@<TRIPOS>ATOM
       1    C1      19.576397   19.170699   19.268475 C.3        1 MOL1        -0.2400
       2    H1      20.210159   19.991830   18.908878 H          1 MOL1         0.0971
       3    H2      19.600595   18.372268   18.515507 H          1 MOL1         0.0971
       4    H3      18.544512   19.539361   19.335845 H          1 MOL1         0.0971
       5    C2      20.068113   18.646637   20.634459 C.3        1 MOL1        -0.1385
       6    H4      21.090786   18.258508   20.528680 H          1 MOL1         0.0960
       7    H5      19.436346   17.801970   20.939140 H          1 MOL1         0.0960
       8    C3      20.038640   19.754564   21.713908 C.3        1 MOL1        -0.1409
       9    H6      20.607964   20.620845   21.349505 H          1 MOL1         0.0960
      10    H7      19.006966   20.103540   21.858961 H          1 MOL1         0.0960
      11    C4      20.634805   19.314892   23.073893 C.3        1 MOL1        -0.1409
      12    H8      20.695114   20.200570   23.719838 H          1 MOL1         0.0960
      13    H9      21.667361   18.969111   22.927503 H          1 MOL1         0.0960
      14    C5      19.809554   18.211597   23.783912 C.3        1 MOL1        -0.1409
      15    H10     18.769872   18.544063   23.903611 H          1 MOL1         0.0960
      16    H11     19.773021   17.315048   23.151886 H          1 MOL1         0.0960
      17    C6      20.394500   17.803420   25.159631 C.3        1 MOL1        -0.1450
      18    H12     21.406863   17.402397   25.017631 H          1 MOL1         0.0960
      19    H13     19.796690   16.982757   25.577906 H          1 MOL1         0.0960
      20    C7      20.457025   18.952974   26.186025 C.3        1 MOL1         0.0172
      21    H14     20.898235   18.584766   27.116216 H          1 MOL1         0.0934
      22    H15     21.092596   19.756220   25.804822 H          1 MOL1         0.0934
      23    N1      19.101965   19.544217   26.520695 N.4        1 MOL1        -0.5956
      24    H16     19.175443   20.299380   27.210987 H          1 MOL1         0.3624
      25    H17     18.466422   18.841310   26.911723 H          1 MOL1         0.3624
      26    H18     18.646629   19.937196   25.691091 H          1 MOL1         0.3624
@<TRIPOS>BOND
    1     1     2    1
    2     1     3    1
    3     1     4    1
    4     1     5    1
    5     5     6    1
    6     5     7    1
    7     5     8    1
    8     8     9    1
    9     8    10    1
   10     8    11    1
   11    11    12    1
   12    11    13    1
   13    11    14    1
   14    14    15    1
   15    14    16    1
   16    14    17    1
   17    17    18    1
   18    17    19    1
   19    17    20    1
   20    20    21    1
   21    20    22    1
   22    20    23    1
   23    23    24    1
   24    23    25    1
   25    23    26    1
@<TRIPOS>SUBSTRUCTURE
       1 MOL1            1 RESIDUE      1      MOL     
@<SCITEGIC>MOL_PROPERTY
VM2 Rank
SciTegic.value.IntegerValue
57

@<SCITEGIC>MOL_PROPERTY
Conf_Id
SciTegic.value.IntegerValue
1340

@<SCITEGIC>MOL_PROPERTY
Probability
SciTegic.value.DoubleValue
0.49

@<SCITEGIC>MOL_PROPERTY
Sum Probability
SciTegic.value.DoubleValue
89.10

@<SCITEGIC>MOL_PROPERTY
Delta G
SciTegic.value.DoubleValue
1.646

@<SCITEGIC>MOL_PROPERTY
G
SciTegic.value.DoubleValue
49.907

@<SCITEGIC>MOL_PROPERTY
E
SciTegic.value.DoubleValue
17.200

@<SCITEGIC>MOL_PROPERTY
-TS
SciTegic.value.DoubleValue
32.708

@<SCITEGIC>MOL_PROPERTY
U+W
SciTegic.value.DoubleValue
-4.262

@<SCITEGIC>MOL_PROPERTY
U
SciTegic.value.DoubleValue
49.425

@<SCITEGIC>MOL_PROPERTY
W
SciTegic.value.DoubleValue
-53.687

@<SCITEGIC>MOL_PROPERTY
W(PB)
SciTegic.value.DoubleValue
-55.970

@<SCITEGIC>MOL_PROPERTY
W(SA)
SciTegic.value.DoubleValue
2.283

@<SCITEGIC>MOL_PROPERTY
Valence
SciTegic.value.DoubleValue
3.135

@<SCITEGIC>MOL_PROPERTY
Coulomb
SciTegic.value.DoubleValue
45.468

@<SCITEGIC>MOL_PROPERTY
VdW
SciTegic.value.DoubleValue
0.822

@<SCITEGIC>MOL_PROPERTY
VdW6
SciTegic.value.DoubleValue
-7.705

@<SCITEGIC>MOL_PROPERTY
VdW12
SciTegic.value.DoubleValue
8.527

@<SCITEGIC>MOL_PROPERTY
Bond
SciTegic.value.DoubleValue
0.222

@<SCITEGIC>MOL_PROPERTY
Angle
SciTegic.value.DoubleValue
0.941

@<SCITEGIC>MOL_PROPERTY
Pdih
SciTegic.value.DoubleValue
1.972

@<SCITEGIC>MOL_PROPERTY
Idih
SciTegic.value.DoubleValue
0.000

@<SCITEGIC>MOL_PROPERTY
Tether
SciTegic.value.DoubleValue
0.000

@<TRIPOS>MOLECULE
guest-s14_vm2.mol2 : vm2 ligand conformer 58
          26          25           1
SMALL
USER_CHARGES
 
@<TRIPOS>ATOM
       1    C1      19.464820   18.844753   19.413792 C.3        1 MOL1        -0.2400
       2    H1      18.866310   19.764969   19.412741 H          1 MOL1         0.0971
       3    H2      19.735235   18.619433   18.374061 H          1 MOL1         0.0971
       4    H3      18.833341   18.023554   19.774389 H          1 MOL1         0.0971
       5    C2      20.735238   19.008727   20.278882 C.3        1 MOL1        -0.1385
       6    H4      21.391567   19.750933   19.803294 H          1 MOL1         0.0960
       7    H5      21.298302   18.065052   20.292555 H          1 MOL1         0.0960
       8    C3      20.441718   19.464758   21.728854 C.3        1 MOL1        -0.1409
       9    H6      21.400944   19.684356   22.214402 H          1 MOL1         0.0960
      10    H7      19.880286   20.408918   21.709338 H          1 MOL1         0.0960
      11    C4      19.666668   18.411758   22.561560 C.3        1 MOL1        -0.1409
      12    H8      20.229631   17.468587   22.584542 H          1 MOL1         0.0960
      13    H9      18.711799   18.189325   22.068240 H          1 MOL1         0.0960
      14    C5      19.359555   18.868380   24.009387 C.3        1 MOL1        -0.1409
      15    H10     18.809120   19.819130   23.986387 H          1 MOL1         0.0960
      16    H11     18.682891   18.131548   24.461890 H          1 MOL1         0.0960
      17    C6      20.621920   19.016241   24.895864 C.3        1 MOL1        -0.1450
      18    H12     21.283479   19.784718   24.477795 H          1 MOL1         0.0960
      19    H13     21.192021   18.077766   24.899302 H          1 MOL1         0.0960
      20    C7      20.285966   19.418467   26.345071 C.3        1 MOL1         0.0172
      21    H14     21.213626   19.603362   26.893540 H          1 MOL1         0.0934
      22    H15     19.700654   20.341948   26.344595 H          1 MOL1         0.0934
      23    N1      19.505115   18.365915   27.107590 N.4        1 MOL1        -0.5956
      24    H16     19.311738   18.659315   28.071353 H          1 MOL1         0.3624
      25    H17     20.015130   17.478231   27.161631 H          1 MOL1         0.3624
      26    H18     18.601098   18.169795   26.666976 H          1 MOL1         0.3624
@<TRIPOS>BOND
    1     1     2    1
    2     1     3    1
    3     1     4    1
    4     1     5    1
    5     5     6    1
    6     5     7    1
    7     5     8    1
    8     8     9    1
    9     8    10    1
   10     8    11    1
   11    11    12    1
   12    11    13    1
   13    11    14    1
   14    14    15    1
   15    14    16    1
   16    14    17    1
   17    17    18    1
   18    17    19    1
   19    17    20    1
   20    20    21    1
   21    20    22    1
   22    20    23    1
   23    23    24    1
   24    23    25    1
   25    23    26    1
@<TRIPOS>SUBSTRUCTURE
       1 MOL1            1 RESIDUE      1      MOL     
@<SCITEGIC>MOL_PROPERTY
VM2 Rank
SciTegic.value.IntegerValue
58

@<SCITEGIC>MOL_PROPERTY
Conf_Id
SciTegic.value.IntegerValue
1063

@<SCITEGIC>MOL_PROPERTY
Probability
SciTegic.value.DoubleValue
0.49

@<SCITEGIC>MOL_PROPERTY
Sum Probability
SciTegic.value.DoubleValue
89.58

@<SCITEGIC>MOL_PROPERTY
Delta G
SciTegic.value.DoubleValue
1.649

@<SCITEGIC>MOL_PROPERTY
G
SciTegic.value.DoubleValue
49.910

@<SCITEGIC>MOL_PROPERTY
E
SciTegic.value.DoubleValue
17.331

@<SCITEGIC>MOL_PROPERTY
-TS
SciTegic.value.DoubleValue
32.579

@<SCITEGIC>MOL_PROPERTY
U+W
SciTegic.value.DoubleValue
-4.131

@<SCITEGIC>MOL_PROPERTY
U
SciTegic.value.DoubleValue
49.323

@<SCITEGIC>MOL_PROPERTY
W
SciTegic.value.DoubleValue
-53.454

@<SCITEGIC>MOL_PROPERTY
W(PB)
SciTegic.value.DoubleValue
-55.750

@<SCITEGIC>MOL_PROPERTY
W(SA)
SciTegic.value.DoubleValue
2.296

@<SCITEGIC>MOL_PROPERTY
Valence
SciTegic.value.DoubleValue
3.408

@<SCITEGIC>MOL_PROPERTY
Coulomb
SciTegic.value.DoubleValue
44.893

@<SCITEGIC>MOL_PROPERTY
VdW
SciTegic.value.DoubleValue
1.021

@<SCITEGIC>MOL_PROPERTY
VdW6
SciTegic.value.DoubleValue
-7.482

@<SCITEGIC>MOL_PROPERTY
VdW12
SciTegic.value.DoubleValue
8.503

@<SCITEGIC>MOL_PROPERTY
Bond
SciTegic.value.DoubleValue
0.238

@<SCITEGIC>MOL_PROPERTY
Angle
SciTegic.value.DoubleValue
1.013

@<SCITEGIC>MOL_PROPERTY
Pdih
SciTegic.value.DoubleValue
2.156

@<SCITEGIC>MOL_PROPERTY
Idih
SciTegic.value.DoubleValue
0.000

@<SCITEGIC>MOL_PROPERTY
Tether
SciTegic.value.DoubleValue
0.000

@<TRIPOS>MOLECULE
guest-s14_vm2.mol2 : vm2 ligand conformer 59
          26          25           1
SMALL
USER_CHARGES
 
@<TRIPOS>ATOM
       1    C1      19.341647   19.834541   19.732952 C.3        1 MOL1        -0.2400
       2    H1      20.039602   19.535293   18.940162 H          1 MOL1         0.0971
       3    H2      18.326919   19.810356   19.314916 H          1 MOL1         0.0971
       4    H3      19.566334   20.872040   20.012799 H          1 MOL1         0.0971
       5    C2      19.450964   18.895283   20.952744 C.3        1 MOL1        -0.1385
       6    H4      19.192205   17.871323   20.649111 H          1 MOL1         0.0960
       7    H5      18.711994   19.201368   21.705168 H          1 MOL1         0.0960
       8    C3      20.872361   18.915532   21.562573 C.3        1 MOL1        -0.1409
       9    H6      21.601357   18.681365   20.774562 H          1 MOL1         0.0960
      10    H7      21.115951   19.930155   21.904042 H          1 MOL1         0.0960
      11    C4      21.066575   17.903019   22.721082 C.3        1 MOL1        -0.1409
      12    H8      22.105791   17.964809   23.072369 H          1 MOL1         0.0960
      13    H9      20.944027   16.885006   22.326305 H          1 MOL1         0.0960
      14    C5      20.115449   18.083466   23.932713 C.3        1 MOL1        -0.1409
      15    H10     19.076401   17.907848   23.624046 H          1 MOL1         0.0960
      16    H11     20.348403   17.299438   24.665162 H          1 MOL1         0.0960
      17    C6      20.232355   19.471579   24.610690 C.3        1 MOL1        -0.1450
      18    H12     19.958379   20.257431   23.895734 H          1 MOL1         0.0960
      19    H13     21.273380   19.661111   24.904034 H          1 MOL1         0.0960
      20    C7      19.316861   19.610371   25.842375 C.3        1 MOL1         0.0172
      21    H14     19.368110   20.636082   26.217659 H          1 MOL1         0.0934
      22    H15     18.281921   19.403213   25.557112 H          1 MOL1         0.0934
      23    N1      19.684788   18.685209   26.985871 N.4        1 MOL1        -0.5956
      24    H16     19.621056   17.699682   26.712932 H          1 MOL1         0.3624
      25    H17     19.065680   18.813556   27.793656 H          1 MOL1         0.3624
      26    H18     20.642390   18.847700   27.313878 H          1 MOL1         0.3624
@<TRIPOS>BOND
    1     1     2    1
    2     1     3    1
    3     1     4    1
    4     1     5    1
    5     5     6    1
    6     5     7    1
    7     5     8    1
    8     8     9    1
    9     8    10    1
   10     8    11    1
   11    11    12    1
   12    11    13    1
   13    11    14    1
   14    14    15    1
   15    14    16    1
   16    14    17    1
   17    17    18    1
   18    17    19    1
   19    17    20    1
   20    20    21    1
   21    20    22    1
   22    20    23    1
   23    23    24    1
   24    23    25    1
   25    23    26    1
@<TRIPOS>SUBSTRUCTURE
       1 MOL1            1 RESIDUE      1      MOL     
@<SCITEGIC>MOL_PROPERTY
VM2 Rank
SciTegic.value.IntegerValue
59

@<SCITEGIC>MOL_PROPERTY
Conf_Id
SciTegic.value.IntegerValue
1337

@<SCITEGIC>MOL_PROPERTY
Probability
SciTegic.value.DoubleValue
0.48

@<SCITEGIC>MOL_PROPERTY
Sum Probability
SciTegic.value.DoubleValue
90.06

@<SCITEGIC>MOL_PROPERTY
Delta G
SciTegic.value.DoubleValue
1.655

@<SCITEGIC>MOL_PROPERTY
G
SciTegic.value.DoubleValue
49.916

@<SCITEGIC>MOL_PROPERTY
E
SciTegic.value.DoubleValue
17.026

@<SCITEGIC>MOL_PROPERTY
-TS
SciTegic.value.DoubleValue
32.890

@<SCITEGIC>MOL_PROPERTY
U+W
SciTegic.value.DoubleValue
-4.436

@<SCITEGIC>MOL_PROPERTY
U
SciTegic.value.DoubleValue
49.231

@<SCITEGIC>MOL_PROPERTY
W
SciTegic.value.DoubleValue
-53.667

@<SCITEGIC>MOL_PROPERTY
W(PB)
SciTegic.value.DoubleValue
-55.963

@<SCITEGIC>MOL_PROPERTY
W(SA)
SciTegic.value.DoubleValue
2.296

@<SCITEGIC>MOL_PROPERTY
Valence
SciTegic.value.DoubleValue
3.277

@<SCITEGIC>MOL_PROPERTY
Coulomb
SciTegic.value.DoubleValue
45.175

@<SCITEGIC>MOL_PROPERTY
VdW
SciTegic.value.DoubleValue
0.779

@<SCITEGIC>MOL_PROPERTY
VdW6
SciTegic.value.DoubleValue
-7.944

@<SCITEGIC>MOL_PROPERTY
VdW12
SciTegic.value.DoubleValue
8.723

@<SCITEGIC>MOL_PROPERTY
Bond
SciTegic.value.DoubleValue
0.239

@<SCITEGIC>MOL_PROPERTY
Angle
SciTegic.value.DoubleValue
1.155

@<SCITEGIC>MOL_PROPERTY
Pdih
SciTegic.value.DoubleValue
1.883

@<SCITEGIC>MOL_PROPERTY
Idih
SciTegic.value.DoubleValue
0.000

@<SCITEGIC>MOL_PROPERTY
Tether
SciTegic.value.DoubleValue
0.000

@<TRIPOS>MOLECULE
guest-s14_vm2.mol2 : vm2 ligand conformer 60
          26          25           1
SMALL
USER_CHARGES
 
@<TRIPOS>ATOM
       1    C1      20.919208   20.087628   20.086126 C.3        1 MOL1        -0.2400
       2    H1      21.981126   20.252378   19.862088 H          1 MOL1         0.0971
       3    H2      20.427358   19.757563   19.161818 H          1 MOL1         0.0971
       4    H3      20.483251   21.051285   20.380252 H          1 MOL1         0.0971
       5    C2      20.755063   19.039714   21.207247 C.3        1 MOL1        -0.1385
       6    H4      21.292554   19.386314   22.099828 H          1 MOL1         0.0960
       7    H5      21.226080   18.096591   20.896934 H          1 MOL1         0.0960
       8    C3      19.265557   18.793340   21.543970 C.3        1 MOL1        -0.1409
       9    H6      18.804526   19.726559   21.893414 H          1 MOL1         0.0960
      10    H7      18.732220   18.521258   20.622699 H          1 MOL1         0.0960
      11    C4      19.041956   17.667383   22.586556 C.3        1 MOL1        -0.1409
      12    H8      19.402062   16.717699   22.167479 H          1 MOL1         0.0960
      13    H9      17.961582   17.537325   22.738419 H          1 MOL1         0.0960
      14    C5      19.719333   17.893054   23.962997 C.3        1 MOL1        -0.1409
      15    H10     19.488762   17.032858   24.606710 H          1 MOL1         0.0960
      16    H11     20.810076   17.896187   23.842369 H          1 MOL1         0.0960
      17    C6      19.256817   19.189768   24.672823 C.3        1 MOL1        -0.1450
      18    H12     18.159833   19.208376   24.717438 H          1 MOL1         0.0960
      19    H13     19.564075   20.072179   24.097244 H          1 MOL1         0.0960
      20    C7      19.806320   19.307428   26.107355 C.3        1 MOL1         0.0172
      21    H14     19.385459   20.196111   26.585532 H          1 MOL1         0.0934
      22    H15     19.505735   18.432224   26.689632 H          1 MOL1         0.0934
      23    N1      21.316748   19.420685   26.173925 N.4        1 MOL1        -0.5956
      24    H16     21.649238   19.508430   27.140393 H          1 MOL1         0.3624
      25    H17     21.659903   20.240852   25.663621 H          1 MOL1         0.3624
      26    H18     21.776849   18.598104   25.772037 H          1 MOL1         0.3624
@<TRIPOS>BOND
    1     1     2    1
    2     1     3    1
    3     1     4    1
    4     1     5    1
    5     5     6    1
    6     5     7    1
    7     5     8    1
    8     8     9    1
    9     8    10    1
   10     8    11    1
   11    11    12    1
   12    11    13    1
   13    11    14    1
   14    14    15    1
   15    14    16    1
   16    14    17    1
   17    17    18    1
   18    17    19    1
   19    17    20    1
   20    20    21    1
   21    20    22    1
   22    20    23    1
   23    23    24    1
   24    23    25    1
   25    23    26    1
@<TRIPOS>SUBSTRUCTURE
       1 MOL1            1 RESIDUE      1      MOL     
@<SCITEGIC>MOL_PROPERTY
VM2 Rank
SciTegic.value.IntegerValue
60

@<SCITEGIC>MOL_PROPERTY
Conf_Id
SciTegic.value.IntegerValue
281

@<SCITEGIC>MOL_PROPERTY
Probability
SciTegic.value.DoubleValue
0.48

@<SCITEGIC>MOL_PROPERTY
Sum Probability
SciTegic.value.DoubleValue
90.54

@<SCITEGIC>MOL_PROPERTY
Delta G
SciTegic.value.DoubleValue
1.659

@<SCITEGIC>MOL_PROPERTY
G
SciTegic.value.DoubleValue
49.921

@<SCITEGIC>MOL_PROPERTY
E
SciTegic.value.DoubleValue
17.015

@<SCITEGIC>MOL_PROPERTY
-TS
SciTegic.value.DoubleValue
32.905

@<SCITEGIC>MOL_PROPERTY
U+W
SciTegic.value.DoubleValue
-4.447

@<SCITEGIC>MOL_PROPERTY
U
SciTegic.value.DoubleValue
49.678

@<SCITEGIC>MOL_PROPERTY
W
SciTegic.value.DoubleValue
-54.124

@<SCITEGIC>MOL_PROPERTY
W(PB)
SciTegic.value.DoubleValue
-56.393

@<SCITEGIC>MOL_PROPERTY
W(SA)
SciTegic.value.DoubleValue
2.269

@<SCITEGIC>MOL_PROPERTY
Valence
SciTegic.value.DoubleValue
3.238

@<SCITEGIC>MOL_PROPERTY
Coulomb
SciTegic.value.DoubleValue
45.761

@<SCITEGIC>MOL_PROPERTY
VdW
SciTegic.value.DoubleValue
0.679

@<SCITEGIC>MOL_PROPERTY
VdW6
SciTegic.value.DoubleValue
-8.038

@<SCITEGIC>MOL_PROPERTY
VdW12
SciTegic.value.DoubleValue
8.716

@<SCITEGIC>MOL_PROPERTY
Bond
SciTegic.value.DoubleValue
0.234

@<SCITEGIC>MOL_PROPERTY
Angle
SciTegic.value.DoubleValue
1.079

@<SCITEGIC>MOL_PROPERTY
Pdih
SciTegic.value.DoubleValue
1.925

@<SCITEGIC>MOL_PROPERTY
Idih
SciTegic.value.DoubleValue
0.000

@<SCITEGIC>MOL_PROPERTY
Tether
SciTegic.value.DoubleValue
0.000

@<TRIPOS>MOLECULE
guest-s14_vm2.mol2 : vm2 ligand conformer 61
          26          25           1
SMALL
USER_CHARGES
 
@<TRIPOS>ATOM
       1    C1      18.562601   18.996266   20.440750 C.3        1 MOL1        -0.2400
       2    H1      18.464256   20.026924   20.803467 H          1 MOL1         0.0971
       3    H2      18.183133   18.971329   19.411044 H          1 MOL1         0.0971
       4    H3      17.916770   18.352836   21.052232 H          1 MOL1         0.0971
       5    C2      20.030778   18.515632   20.487836 C.3        1 MOL1        -0.1385
       6    H4      20.660313   19.190843   19.891598 H          1 MOL1         0.0960
       7    H5      20.096538   17.529560   20.007105 H          1 MOL1         0.0960
       8    C3      20.594129   18.406374   21.925088 C.3        1 MOL1        -0.1409
       9    H6      19.971598   17.709487   22.501570 H          1 MOL1         0.0960
      10    H7      21.596889   17.960214   21.875090 H          1 MOL1         0.0960
      11    C4      20.682804   19.770376   22.654824 C.3        1 MOL1        -0.1409
      12    H8      19.677353   20.183686   22.805170 H          1 MOL1         0.0960
      13    H9      21.212725   20.486358   22.011691 H          1 MOL1         0.0960
      14    C5      21.422291   19.694676   24.015601 C.3        1 MOL1        -0.1409
      15    H10     22.463331   19.388250   23.843669 H          1 MOL1         0.0960
      16    H11     21.472022   20.704352   24.446305 H          1 MOL1         0.0960
      17    C6      20.781160   18.738368   25.051942 C.3        1 MOL1        -0.1450
      18    H12     21.364056   18.781654   25.981550 H          1 MOL1         0.0960
      19    H13     20.845492   17.701872   24.696986 H          1 MOL1         0.0960
      20    C7      19.314134   19.091127   25.360330 C.3        1 MOL1         0.0172
      21    H14     19.251907   20.120118   25.724530 H          1 MOL1         0.0934
      22    H15     18.716270   19.011247   24.448613 H          1 MOL1         0.0934
      23    N1      18.693103   18.186181   26.404630 N.4        1 MOL1        -0.5956
      24    H16     17.716993   18.437833   26.594853 H          1 MOL1         0.3624
      25    H17     19.193227   18.235147   27.298293 H          1 MOL1         0.3624
      26    H18     18.696483   17.204170   26.110234 H          1 MOL1         0.3624
@<TRIPOS>BOND
    1     1     2    1
    2     1     3    1
    3     1     4    1
    4     1     5    1
    5     5     6    1
    6     5     7    1
    7     5     8    1
    8     8     9    1
    9     8    10    1
   10     8    11    1
   11    11    12    1
   12    11    13    1
   13    11    14    1
   14    14    15    1
   15    14    16    1
   16    14    17    1
   17    17    18    1
   18    17    19    1
   19    17    20    1
   20    20    21    1
   21    20    22    1
   22    20    23    1
   23    23    24    1
   24    23    25    1
   25    23    26    1
@<TRIPOS>SUBSTRUCTURE
       1 MOL1            1 RESIDUE      1      MOL     
@<SCITEGIC>MOL_PROPERTY
VM2 Rank
SciTegic.value.IntegerValue
61

@<SCITEGIC>MOL_PROPERTY
Conf_Id
SciTegic.value.IntegerValue
1003

@<SCITEGIC>MOL_PROPERTY
Probability
SciTegic.value.DoubleValue
0.47

@<SCITEGIC>MOL_PROPERTY
Sum Probability
SciTegic.value.DoubleValue
91.01

@<SCITEGIC>MOL_PROPERTY
Delta G
SciTegic.value.DoubleValue
1.665

@<SCITEGIC>MOL_PROPERTY
G
SciTegic.value.DoubleValue
49.926

@<SCITEGIC>MOL_PROPERTY
E
SciTegic.value.DoubleValue
17.106

@<SCITEGIC>MOL_PROPERTY
-TS
SciTegic.value.DoubleValue
32.820

@<SCITEGIC>MOL_PROPERTY
U+W
SciTegic.value.DoubleValue
-4.356

@<SCITEGIC>MOL_PROPERTY
U
SciTegic.value.DoubleValue
49.567

@<SCITEGIC>MOL_PROPERTY
W
SciTegic.value.DoubleValue
-53.923

@<SCITEGIC>MOL_PROPERTY
W(PB)
SciTegic.value.DoubleValue
-56.210

@<SCITEGIC>MOL_PROPERTY
W(SA)
SciTegic.value.DoubleValue
2.287

@<SCITEGIC>MOL_PROPERTY
Valence
SciTegic.value.DoubleValue
3.381

@<SCITEGIC>MOL_PROPERTY
Coulomb
SciTegic.value.DoubleValue
45.516

@<SCITEGIC>MOL_PROPERTY
VdW
SciTegic.value.DoubleValue
0.670

@<SCITEGIC>MOL_PROPERTY
VdW6
SciTegic.value.DoubleValue
-8.071

@<SCITEGIC>MOL_PROPERTY
VdW12
SciTegic.value.DoubleValue
8.741

@<SCITEGIC>MOL_PROPERTY
Bond
SciTegic.value.DoubleValue
0.231

@<SCITEGIC>MOL_PROPERTY
Angle
SciTegic.value.DoubleValue
1.069

@<SCITEGIC>MOL_PROPERTY
Pdih
SciTegic.value.DoubleValue
2.080

@<SCITEGIC>MOL_PROPERTY
Idih
SciTegic.value.DoubleValue
0.000

@<SCITEGIC>MOL_PROPERTY
Tether
SciTegic.value.DoubleValue
0.000

@<TRIPOS>MOLECULE
guest-s14_vm2.mol2 : vm2 ligand conformer 62
          26          25           1
SMALL
USER_CHARGES
 
@<TRIPOS>ATOM
       1    C1      19.945080   19.621816   19.485088 C.3        1 MOL1        -0.2400
       2    H1      20.427538   20.593938   19.650075 H          1 MOL1         0.0971
       3    H2      20.029345   19.382560   18.417104 H          1 MOL1         0.0971
       4    H3      18.877559   19.723512   19.715831 H          1 MOL1         0.0971
       5    C2      20.610032   18.518882   20.339813 C.3        1 MOL1        -0.1385
       6    H4      21.638430   18.368541   19.982597 H          1 MOL1         0.0960
       7    H5      20.088197   17.564384   20.183708 H          1 MOL1         0.0960
       8    C3      20.654638   18.850465   21.851261 C.3        1 MOL1        -0.1409
       9    H6      21.259056   18.081311   22.348764 H          1 MOL1         0.0960
      10    H7      21.179868   19.803584   22.001956 H          1 MOL1         0.0960
      11    C4      19.253149   18.915052   22.510150 C.3        1 MOL1        -0.1409
      12    H8      18.728042   17.961810   22.359792 H          1 MOL1         0.0960
      13    H9      18.649361   19.682629   22.009235 H          1 MOL1         0.0960
      14    C5      19.295752   19.251655   24.021175 C.3        1 MOL1        -0.1409
      15    H10     19.816363   20.207900   24.164900 H          1 MOL1         0.0960
      16    H11     18.265539   19.404233   24.371867 H          1 MOL1         0.0960
      17    C6      19.959788   18.149011   24.883431 C.3        1 MOL1        -0.1450
      18    H12     21.023266   18.051550   24.631918 H          1 MOL1         0.0960
      19    H13     19.492424   17.180856   24.659807 H          1 MOL1         0.0960
      20    C7      19.823748   18.418702   26.394308 C.3        1 MOL1         0.0172
      21    H14     18.766877   18.514412   26.657472 H          1 MOL1         0.0934
      22    H15     20.239197   17.575333   26.952592 H          1 MOL1         0.0934
      23    N1      20.538813   19.673417   26.855774 N.4        1 MOL1        -0.5956
      24    H16     20.438359   19.819080   27.866214 H          1 MOL1         0.3624
      25    H17     20.171314   20.511005   26.393875 H          1 MOL1         0.3624
      26    H18     21.543798   19.633760   26.657342 H          1 MOL1         0.3624
@<TRIPOS>BOND
    1     1     2    1
    2     1     3    1
    3     1     4    1
    4     1     5    1
    5     5     6    1
    6     5     7    1
    7     5     8    1
    8     8     9    1
    9     8    10    1
   10     8    11    1
   11    11    12    1
   12    11    13    1
   13    11    14    1
   14    14    15    1
   15    14    16    1
   16    14    17    1
   17    17    18    1
   18    17    19    1
   19    17    20    1
   20    20    21    1
   21    20    22    1
   22    20    23    1
   23    23    24    1
   24    23    25    1
   25    23    26    1
@<TRIPOS>SUBSTRUCTURE
       1 MOL1            1 RESIDUE      1      MOL     
@<SCITEGIC>MOL_PROPERTY
VM2 Rank
SciTegic.value.IntegerValue
62

@<SCITEGIC>MOL_PROPERTY
Conf_Id
SciTegic.value.IntegerValue
838

@<SCITEGIC>MOL_PROPERTY
Probability
SciTegic.value.DoubleValue
0.47

@<SCITEGIC>MOL_PROPERTY
Sum Probability
SciTegic.value.DoubleValue
91.48

@<SCITEGIC>MOL_PROPERTY
Delta G
SciTegic.value.DoubleValue
1.667

@<SCITEGIC>MOL_PROPERTY
G
SciTegic.value.DoubleValue
49.928

@<SCITEGIC>MOL_PROPERTY
E
SciTegic.value.DoubleValue
17.303

@<SCITEGIC>MOL_PROPERTY
-TS
SciTegic.value.DoubleValue
32.625

@<SCITEGIC>MOL_PROPERTY
U+W
SciTegic.value.DoubleValue
-4.159

@<SCITEGIC>MOL_PROPERTY
U
SciTegic.value.DoubleValue
49.401

@<SCITEGIC>MOL_PROPERTY
W
SciTegic.value.DoubleValue
-53.560

@<SCITEGIC>MOL_PROPERTY
W(PB)
SciTegic.value.DoubleValue
-55.885

@<SCITEGIC>MOL_PROPERTY
W(SA)
SciTegic.value.DoubleValue
2.325

@<SCITEGIC>MOL_PROPERTY
Valence
SciTegic.value.DoubleValue
3.370

@<SCITEGIC>MOL_PROPERTY
Coulomb
SciTegic.value.DoubleValue
45.066

@<SCITEGIC>MOL_PROPERTY
VdW
SciTegic.value.DoubleValue
0.965

@<SCITEGIC>MOL_PROPERTY
VdW6
SciTegic.value.DoubleValue
-7.528

@<SCITEGIC>MOL_PROPERTY
VdW12
SciTegic.value.DoubleValue
8.494

@<SCITEGIC>MOL_PROPERTY
Bond
SciTegic.value.DoubleValue
0.232

@<SCITEGIC>MOL_PROPERTY
Angle
SciTegic.value.DoubleValue
0.963

@<SCITEGIC>MOL_PROPERTY
Pdih
SciTegic.value.DoubleValue
2.174

@<SCITEGIC>MOL_PROPERTY
Idih
SciTegic.value.DoubleValue
0.000

@<SCITEGIC>MOL_PROPERTY
Tether
SciTegic.value.DoubleValue
0.000

@<TRIPOS>MOLECULE
guest-s14_vm2.mol2 : vm2 ligand conformer 63
          26          25           1
SMALL
USER_CHARGES
 
@<TRIPOS>ATOM
       1    C1      20.141459   19.543779   19.287413 C.3        1 MOL1        -0.2400
       2    H1      19.155446   19.295298   18.873580 H          1 MOL1         0.0971
       3    H2      20.203660   20.634906   19.391375 H          1 MOL1         0.0971
       4    H3      20.900787   19.230747   18.559080 H          1 MOL1         0.0971
       5    C2      20.366807   18.843886   20.644506 C.3        1 MOL1        -0.1385
       6    H4      21.376252   19.082916   21.004102 H          1 MOL1         0.0960
       7    H5      20.327828   17.754749   20.503237 H          1 MOL1         0.0960
       8    C3      19.309988   19.273499   21.689564 C.3        1 MOL1        -0.1409
       9    H6      19.386683   20.354295   21.871702 H          1 MOL1         0.0960
      10    H7      18.307914   19.102235   21.272575 H          1 MOL1         0.0960
      11    C4      19.417139   18.510957   23.033190 C.3        1 MOL1        -0.1409
      12    H8      19.337086   17.430657   22.849594 H          1 MOL1         0.0960
      13    H9      18.549648   18.784107   23.648134 H          1 MOL1         0.0960
      14    C5      20.721256   18.813397   23.814366 C.3        1 MOL1        -0.1409
      15    H10     21.588760   18.513622   23.212565 H          1 MOL1         0.0960
      16    H11     20.817629   19.895833   23.971988 H          1 MOL1         0.0960
      17    C6      20.803091   18.073139   25.173297 C.3        1 MOL1        -0.1450
      18    H12     21.771953   18.286756   25.643927 H          1 MOL1         0.0960
      19    H13     20.781478   16.989516   24.996780 H          1 MOL1         0.0960
      20    C7      19.674573   18.436450   26.159868 C.3        1 MOL1         0.0172
      21    H14     18.705195   18.180110   25.725049 H          1 MOL1         0.0934
      22    H15     19.796762   17.857688   27.079435 H          1 MOL1         0.0934
      23    N1      19.646687   19.903894   26.538796 N.4        1 MOL1        -0.5956
      24    H16     19.502642   20.502299   25.719548 H          1 MOL1         0.3624
      25    H17     20.523380   20.199372   26.980385 H          1 MOL1         0.3624
      26    H18     18.891867   20.112303   27.201358 H          1 MOL1         0.3624
@<TRIPOS>BOND
    1     1     2    1
    2     1     3    1
    3     1     4    1
    4     1     5    1
    5     5     6    1
    6     5     7    1
    7     5     8    1
    8     8     9    1
    9     8    10    1
   10     8    11    1
   11    11    12    1
   12    11    13    1
   13    11    14    1
   14    14    15    1
   15    14    16    1
   16    14    17    1
   17    17    18    1
   18    17    19    1
   19    17    20    1
   20    20    21    1
   21    20    22    1
   22    20    23    1
   23    23    24    1
   24    23    25    1
   25    23    26    1
@<TRIPOS>SUBSTRUCTURE
       1 MOL1            1 RESIDUE      1      MOL     
@<SCITEGIC>MOL_PROPERTY
VM2 Rank
SciTegic.value.IntegerValue
63

@<SCITEGIC>MOL_PROPERTY
Conf_Id
SciTegic.value.IntegerValue
243

@<SCITEGIC>MOL_PROPERTY
Probability
SciTegic.value.DoubleValue
0.47

@<SCITEGIC>MOL_PROPERTY
Sum Probability
SciTegic.value.DoubleValue
91.95

@<SCITEGIC>MOL_PROPERTY
Delta G
SciTegic.value.DoubleValue
1.674

@<SCITEGIC>MOL_PROPERTY
G
SciTegic.value.DoubleValue
49.935

@<SCITEGIC>MOL_PROPERTY
E
SciTegic.value.DoubleValue
17.227

@<SCITEGIC>MOL_PROPERTY
-TS
SciTegic.value.DoubleValue
32.708

@<SCITEGIC>MOL_PROPERTY
U+W
SciTegic.value.DoubleValue
-4.235

@<SCITEGIC>MOL_PROPERTY
U
SciTegic.value.DoubleValue
49.425

@<SCITEGIC>MOL_PROPERTY
W
SciTegic.value.DoubleValue
-53.659

@<SCITEGIC>MOL_PROPERTY
W(PB)
SciTegic.value.DoubleValue
-55.946

@<SCITEGIC>MOL_PROPERTY
W(SA)
SciTegic.value.DoubleValue
2.286

@<SCITEGIC>MOL_PROPERTY
Valence
SciTegic.value.DoubleValue
3.135

@<SCITEGIC>MOL_PROPERTY
Coulomb
SciTegic.value.DoubleValue
45.468

@<SCITEGIC>MOL_PROPERTY
VdW
SciTegic.value.DoubleValue
0.822

@<SCITEGIC>MOL_PROPERTY
VdW6
SciTegic.value.DoubleValue
-7.705

@<SCITEGIC>MOL_PROPERTY
VdW12
SciTegic.value.DoubleValue
8.527

@<SCITEGIC>MOL_PROPERTY
Bond
SciTegic.value.DoubleValue
0.222

@<SCITEGIC>MOL_PROPERTY
Angle
SciTegic.value.DoubleValue
0.941

@<SCITEGIC>MOL_PROPERTY
Pdih
SciTegic.value.DoubleValue
1.972

@<SCITEGIC>MOL_PROPERTY
Idih
SciTegic.value.DoubleValue
0.000

@<SCITEGIC>MOL_PROPERTY
Tether
SciTegic.value.DoubleValue
0.000

@<TRIPOS>MOLECULE
guest-s14_vm2.mol2 : vm2 ligand conformer 64
          26          25           1
SMALL
USER_CHARGES
 
@<TRIPOS>ATOM
       1    C1      20.346938   18.264144   19.485207 C.3        1 MOL1        -0.2400
       2    H1      19.373322   18.559355   19.072697 H          1 MOL1         0.0971
       3    H2      21.112483   18.928912   19.064202 H          1 MOL1         0.0971
       4    H3      20.562411   17.243512   19.143285 H          1 MOL1         0.0971
       5    C2      20.339305   18.332147   21.027123 C.3        1 MOL1        -0.1385
       6    H4      21.315335   18.003631   21.410617 H          1 MOL1         0.0960
       7    H5      19.591345   17.625679   21.410687 H          1 MOL1         0.0960
       8    C3      20.033251   19.761730   21.532943 C.3        1 MOL1        -0.1409
       9    H6      20.745696   20.462188   21.075648 H          1 MOL1         0.0960
      10    H7      19.035720   20.070267   21.190931 H          1 MOL1         0.0960
      11    C4      20.122615   19.906227   23.071913 C.3        1 MOL1        -0.1409
      12    H8      20.006402   20.968237   23.328581 H          1 MOL1         0.0960
      13    H9      21.128523   19.616419   23.403798 H          1 MOL1         0.0960
      14    C5      19.050967   19.084288   23.831782 C.3        1 MOL1        -0.1409
      15    H10     18.059209   19.317818   23.420656 H          1 MOL1         0.0960
      16    H11     19.206937   18.011089   23.664835 H          1 MOL1         0.0960
      17    C6      19.033910   19.372254   25.353941 C.3        1 MOL1        -0.1450
      18    H12     18.232740   18.787770   25.825438 H          1 MOL1         0.0960
      19    H13     18.780674   20.427790   25.519983 H          1 MOL1         0.0960
      20    C7      20.368024   19.066243   26.064505 C.3        1 MOL1         0.0172
      21    H14     21.165595   19.675774   25.631999 H          1 MOL1         0.0934
      22    H15     20.281995   19.322250   27.124011 H          1 MOL1         0.0934
      23    N1      20.785990   17.611967   25.973586 N.4        1 MOL1        -0.5956
      24    H16     20.913882   17.316443   25.000874 H          1 MOL1         0.3624
      25    H17     20.087310   16.988841   26.391302 H          1 MOL1         0.3624
      26    H18     21.671805   17.438886   26.461004 H          1 MOL1         0.3624
@<TRIPOS>BOND
    1     1     2    1
    2     1     3    1
    3     1     4    1
    4     1     5    1
    5     5     6    1
    6     5     7    1
    7     5     8    1
    8     8     9    1
    9     8    10    1
   10     8    11    1
   11    11    12    1
   12    11    13    1
   13    11    14    1
   14    14    15    1
   15    14    16    1
   16    14    17    1
   17    17    18    1
   18    17    19    1
   19    17    20    1
   20    20    21    1
   21    20    22    1
   22    20    23    1
   23    23    24    1
   24    23    25    1
   25    23    26    1
@<TRIPOS>SUBSTRUCTURE
       1 MOL1            1 RESIDUE      1      MOL     
@<SCITEGIC>MOL_PROPERTY
VM2 Rank
SciTegic.value.IntegerValue
64

@<SCITEGIC>MOL_PROPERTY
Conf_Id
SciTegic.value.IntegerValue
251

@<SCITEGIC>MOL_PROPERTY
Probability
SciTegic.value.DoubleValue
0.45

@<SCITEGIC>MOL_PROPERTY
Sum Probability
SciTegic.value.DoubleValue
92.40

@<SCITEGIC>MOL_PROPERTY
Delta G
SciTegic.value.DoubleValue
1.696

@<SCITEGIC>MOL_PROPERTY
G
SciTegic.value.DoubleValue
49.957

@<SCITEGIC>MOL_PROPERTY
E
SciTegic.value.DoubleValue
17.206

@<SCITEGIC>MOL_PROPERTY
-TS
SciTegic.value.DoubleValue
32.751

@<SCITEGIC>MOL_PROPERTY
U+W
SciTegic.value.DoubleValue
-4.256

@<SCITEGIC>MOL_PROPERTY
U
SciTegic.value.DoubleValue
49.692

@<SCITEGIC>MOL_PROPERTY
W
SciTegic.value.DoubleValue
-53.947

@<SCITEGIC>MOL_PROPERTY
W(PB)
SciTegic.value.DoubleValue
-56.227

@<SCITEGIC>MOL_PROPERTY
W(SA)
SciTegic.value.DoubleValue
2.279

@<SCITEGIC>MOL_PROPERTY
Valence
SciTegic.value.DoubleValue
3.067

@<SCITEGIC>MOL_PROPERTY
Coulomb
SciTegic.value.DoubleValue
45.912

@<SCITEGIC>MOL_PROPERTY
VdW
SciTegic.value.DoubleValue
0.712

@<SCITEGIC>MOL_PROPERTY
VdW6
SciTegic.value.DoubleValue
-7.811

@<SCITEGIC>MOL_PROPERTY
VdW12
SciTegic.value.DoubleValue
8.523

@<SCITEGIC>MOL_PROPERTY
Bond
SciTegic.value.DoubleValue
0.215

@<SCITEGIC>MOL_PROPERTY
Angle
SciTegic.value.DoubleValue
0.854

@<SCITEGIC>MOL_PROPERTY
Pdih
SciTegic.value.DoubleValue
1.997

@<SCITEGIC>MOL_PROPERTY
Idih
SciTegic.value.DoubleValue
0.000

@<SCITEGIC>MOL_PROPERTY
Tether
SciTegic.value.DoubleValue
0.000

@<TRIPOS>MOLECULE
guest-s14_vm2.mol2 : vm2 ligand conformer 65
          26          25           1
SMALL
USER_CHARGES
 
@<TRIPOS>ATOM
       1    C1      18.882863   18.473860   19.956827 C.3        1 MOL1        -0.2400
       2    H1      18.727289   19.406262   19.398593 H          1 MOL1         0.0971
       3    H2      19.064272   17.672124   19.229285 H          1 MOL1         0.0971
       4    H3      17.955022   18.237979   20.494105 H          1 MOL1         0.0971
       5    C2      20.071229   18.602863   20.933100 C.3        1 MOL1        -0.1385
       6    H4      20.989224   18.808728   20.365176 H          1 MOL1         0.0960
       7    H5      20.220517   17.641409   21.442167 H          1 MOL1         0.0960
       8    C3      19.837104   19.725444   21.971116 C.3        1 MOL1        -0.1409
       9    H6      19.624849   20.663399   21.439730 H          1 MOL1         0.0960
      10    H7      18.938306   19.504033   22.561610 H          1 MOL1         0.0960
      11    C4      21.046600   19.960849   22.912263 C.3        1 MOL1        -0.1409
      12    H8      20.819008   20.805623   23.576262 H          1 MOL1         0.0960
      13    H9      21.907351   20.283244   22.310321 H          1 MOL1         0.0960
      14    C5      21.470098   18.735575   23.766716 C.3        1 MOL1        -0.1409
      15    H10     21.866051   17.948741   23.111023 H          1 MOL1         0.0960
      16    H11     22.308883   19.032112   24.411582 H          1 MOL1         0.0960
      17    C6      20.346397   18.140383   24.650908 C.3        1 MOL1        -0.1450
      18    H12     20.754950   17.297198   25.223505 H          1 MOL1         0.0960
      19    H13     19.550449   17.726506   24.018713 H          1 MOL1         0.0960
      20    C7      19.750748   19.171204   25.627590 C.3        1 MOL1         0.0172
      21    H14     20.541970   19.572395   26.266603 H          1 MOL1         0.0934
      22    H15     19.308623   19.998399   25.066162 H          1 MOL1         0.0934
      23    N1      18.675961   18.588822   26.522480 N.4        1 MOL1        -0.5956
      24    H16     19.034609   17.821355   27.099984 H          1 MOL1         0.3624
      25    H17     17.888233   18.217192   25.981756 H          1 MOL1         0.3624
      26    H18     18.292923   19.291342   27.164401 H          1 MOL1         0.3624
@<TRIPOS>BOND
    1     1     2    1
    2     1     3    1
    3     1     4    1
    4     1     5    1
    5     5     6    1
    6     5     7    1
    7     5     8    1
    8     8     9    1
    9     8    10    1
   10     8    11    1
   11    11    12    1
   12    11    13    1
   13    11    14    1
   14    14    15    1
   15    14    16    1
   16    14    17    1
   17    17    18    1
   18    17    19    1
   19    17    20    1
   20    20    21    1
   21    20    22    1
   22    20    23    1
   23    23    24    1
   24    23    25    1
   25    23    26    1
@<TRIPOS>SUBSTRUCTURE
       1 MOL1            1 RESIDUE      1      MOL     
@<SCITEGIC>MOL_PROPERTY
VM2 Rank
SciTegic.value.IntegerValue
65

@<SCITEGIC>MOL_PROPERTY
Conf_Id
SciTegic.value.IntegerValue
446

@<SCITEGIC>MOL_PROPERTY
Probability
SciTegic.value.DoubleValue
0.44

@<SCITEGIC>MOL_PROPERTY
Sum Probability
SciTegic.value.DoubleValue
92.84

@<SCITEGIC>MOL_PROPERTY
Delta G
SciTegic.value.DoubleValue
1.701

@<SCITEGIC>MOL_PROPERTY
G
SciTegic.value.DoubleValue
49.963

@<SCITEGIC>MOL_PROPERTY
E
SciTegic.value.DoubleValue
16.925

@<SCITEGIC>MOL_PROPERTY
-TS
SciTegic.value.DoubleValue
33.038

@<SCITEGIC>MOL_PROPERTY
U+W
SciTegic.value.DoubleValue
-4.537

@<SCITEGIC>MOL_PROPERTY
U
SciTegic.value.DoubleValue
49.453

@<SCITEGIC>MOL_PROPERTY
W
SciTegic.value.DoubleValue
-53.990

@<SCITEGIC>MOL_PROPERTY
W(PB)
SciTegic.value.DoubleValue
-56.277

@<SCITEGIC>MOL_PROPERTY
W(SA)
SciTegic.value.DoubleValue
2.286

@<SCITEGIC>MOL_PROPERTY
Valence
SciTegic.value.DoubleValue
3.376

@<SCITEGIC>MOL_PROPERTY
Coulomb
SciTegic.value.DoubleValue
45.559

@<SCITEGIC>MOL_PROPERTY
VdW
SciTegic.value.DoubleValue
0.518

@<SCITEGIC>MOL_PROPERTY
VdW6
SciTegic.value.DoubleValue
-8.348

@<SCITEGIC>MOL_PROPERTY
VdW12
SciTegic.value.DoubleValue
8.866

@<SCITEGIC>MOL_PROPERTY
Bond
SciTegic.value.DoubleValue
0.240

@<SCITEGIC>MOL_PROPERTY
Angle
SciTegic.value.DoubleValue
1.237

@<SCITEGIC>MOL_PROPERTY
Pdih
SciTegic.value.DoubleValue
1.900

@<SCITEGIC>MOL_PROPERTY
Idih
SciTegic.value.DoubleValue
0.000

@<SCITEGIC>MOL_PROPERTY
Tether
SciTegic.value.DoubleValue
0.000

@<TRIPOS>MOLECULE
guest-s14_vm2.mol2 : vm2 ligand conformer 66
          26          25           1
SMALL
USER_CHARGES
 
@<TRIPOS>ATOM
       1    C1      18.734589   18.646540   20.012912 C.3        1 MOL1        -0.2400
       2    H1      19.274029   18.996503   19.123118 H          1 MOL1         0.0971
       3    H2      18.176775   17.742956   19.734728 H          1 MOL1         0.0971
       4    H3      18.006906   19.417839   20.297123 H          1 MOL1         0.0971
       5    C2      19.709216   18.349903   21.172259 C.3        1 MOL1        -0.1385
       6    H4      20.405039   17.554999   20.869617 H          1 MOL1         0.0960
       7    H5      19.138159   17.965498   22.027747 H          1 MOL1         0.0960
       8    C3      20.504604   19.610623   21.585361 C.3        1 MOL1        -0.1409
       9    H6      21.006819   20.021543   20.698714 H          1 MOL1         0.0960
      10    H7      19.812127   20.391197   21.927034 H          1 MOL1         0.0960
      11    C4      21.578050   19.340227   22.671343 C.3        1 MOL1        -0.1409
      12    H8      22.114563   20.276673   22.877274 H          1 MOL1         0.0960
      13    H9      22.328530   18.648024   22.265341 H          1 MOL1         0.0960
      14    C5      21.040718   18.764709   24.007158 C.3        1 MOL1        -0.1409
      15    H10     20.615237   17.767767   23.835826 H          1 MOL1         0.0960
      16    H11     21.891370   18.617679   24.687039 H          1 MOL1         0.0960
      17    C6      19.998152   19.678847   24.697558 C.3        1 MOL1        -0.1450
      18    H12     19.093755   19.761949   24.081512 H          1 MOL1         0.0960
      19    H13     20.409572   20.692474   24.792460 H          1 MOL1         0.0960
      20    C7      19.607689   19.176573   26.100747 C.3        1 MOL1         0.0172
      21    H14     20.502513   19.090205   26.723010 H          1 MOL1         0.0934
      22    H15     18.934156   19.898627   26.570349 H          1 MOL1         0.0934
      23    N1      18.907982   17.831578   26.093662 N.4        1 MOL1        -0.5956
      24    H16     18.651923   17.531190   27.040503 H          1 MOL1         0.3624
      25    H17     19.501868   17.097185   25.696404 H          1 MOL1         0.3624
      26    H18     18.043679   17.854942   25.542956 H          1 MOL1         0.3624
@<TRIPOS>BOND
    1     1     2    1
    2     1     3    1
    3     1     4    1
    4     1     5    1
    5     5     6    1
    6     5     7    1
    7     5     8    1
    8     8     9    1
    9     8    10    1
   10     8    11    1
   11    11    12    1
   12    11    13    1
   13    11    14    1
   14    14    15    1
   15    14    16    1
   16    14    17    1
   17    17    18    1
   18    17    19    1
   19    17    20    1
   20    20    21    1
   21    20    22    1
   22    20    23    1
   23    23    24    1
   24    23    25    1
   25    23    26    1
@<TRIPOS>SUBSTRUCTURE
       1 MOL1            1 RESIDUE      1      MOL     
@<SCITEGIC>MOL_PROPERTY
VM2 Rank
SciTegic.value.IntegerValue
66

@<SCITEGIC>MOL_PROPERTY
Conf_Id
SciTegic.value.IntegerValue
1355

@<SCITEGIC>MOL_PROPERTY
Probability
SciTegic.value.DoubleValue
0.43

@<SCITEGIC>MOL_PROPERTY
Sum Probability
SciTegic.value.DoubleValue
93.28

@<SCITEGIC>MOL_PROPERTY
Delta G
SciTegic.value.DoubleValue
1.715

@<SCITEGIC>MOL_PROPERTY
G
SciTegic.value.DoubleValue
49.977

@<SCITEGIC>MOL_PROPERTY
E
SciTegic.value.DoubleValue
17.071

@<SCITEGIC>MOL_PROPERTY
-TS
SciTegic.value.DoubleValue
32.905

@<SCITEGIC>MOL_PROPERTY
U+W
SciTegic.value.DoubleValue
-4.391

@<SCITEGIC>MOL_PROPERTY
U
SciTegic.value.DoubleValue
49.677

@<SCITEGIC>MOL_PROPERTY
W
SciTegic.value.DoubleValue
-54.068

@<SCITEGIC>MOL_PROPERTY
W(PB)
SciTegic.value.DoubleValue
-56.333

@<SCITEGIC>MOL_PROPERTY
W(SA)
SciTegic.value.DoubleValue
2.265

@<SCITEGIC>MOL_PROPERTY
Valence
SciTegic.value.DoubleValue
3.238

@<SCITEGIC>MOL_PROPERTY
Coulomb
SciTegic.value.DoubleValue
45.761

@<SCITEGIC>MOL_PROPERTY
VdW
SciTegic.value.DoubleValue
0.679

@<SCITEGIC>MOL_PROPERTY
VdW6
SciTegic.value.DoubleValue
-8.038

@<SCITEGIC>MOL_PROPERTY
VdW12
SciTegic.value.DoubleValue
8.717

@<SCITEGIC>MOL_PROPERTY
Bond
SciTegic.value.DoubleValue
0.233

@<SCITEGIC>MOL_PROPERTY
Angle
SciTegic.value.DoubleValue
1.079

@<SCITEGIC>MOL_PROPERTY
Pdih
SciTegic.value.DoubleValue
1.925

@<SCITEGIC>MOL_PROPERTY
Idih
SciTegic.value.DoubleValue
0.000

@<SCITEGIC>MOL_PROPERTY
Tether
SciTegic.value.DoubleValue
0.000

@<TRIPOS>MOLECULE
guest-s14_vm2.mol2 : vm2 ligand conformer 67
          26          25           1
SMALL
USER_CHARGES
 
@<TRIPOS>ATOM
       1    C1      20.660827   18.470790   19.495634 C.3        1 MOL1        -0.2400
       2    H1      21.528315   17.879202   19.175447 H          1 MOL1         0.0971
       3    H2      19.768308   18.044620   19.019178 H          1 MOL1         0.0971
       4    H3      20.793381   19.493877   19.120184 H          1 MOL1         0.0971
       5    C2      20.529576   18.457316   21.033420 C.3        1 MOL1        -0.1385
       6    H4      21.455153   18.852020   21.472938 H          1 MOL1         0.0960
       7    H5      20.428036   17.419706   21.380812 H          1 MOL1         0.0960
       8    C3      19.314880   19.288950   21.508957 C.3        1 MOL1        -0.1409
       9    H6      19.441239   20.337078   21.204493 H          1 MOL1         0.0960
      10    H7      18.412256   18.926630   20.997751 H          1 MOL1         0.0960
      11    C4      19.075401   19.216999   23.036955 C.3        1 MOL1        -0.1409
      12    H8      18.929137   18.168909   23.330386 H          1 MOL1         0.0960
      13    H9      18.134652   19.736352   23.266112 H          1 MOL1         0.0960
      14    C5      20.217080   19.851718   23.870690 C.3        1 MOL1        -0.1409
      15    H10     21.148230   19.288677   23.729630 H          1 MOL1         0.0960
      16    H11     20.413115   20.866952   23.499182 H          1 MOL1         0.0960
      17    C6      19.888693   19.934827   25.382458 C.3        1 MOL1        -0.1450
      18    H12     19.012139   20.580131   25.527686 H          1 MOL1         0.0960
      19    H13     20.719166   20.424229   25.908387 H          1 MOL1         0.0960
      20    C7      19.610253   18.567534   26.039258 C.3        1 MOL1         0.0172
      21    H14     19.359922   18.715456   27.093273 H          1 MOL1         0.0934
      22    H15     18.756403   18.090156   25.551651 H          1 MOL1         0.0934
      23    N1      20.784291   17.610865   25.973629 N.4        1 MOL1        -0.5956
      24    H16     21.050368   17.406245   25.005542 H          1 MOL1         0.3624
      25    H17     20.571046   16.714453   26.424376 H          1 MOL1         0.3624
      26    H18     21.612284   17.992546   26.442324 H          1 MOL1         0.3624
@<TRIPOS>BOND
    1     1     2    1
    2     1     3    1
    3     1     4    1
    4     1     5    1
    5     5     6    1
    6     5     7    1
    7     5     8    1
    8     8     9    1
    9     8    10    1
   10     8    11    1
   11    11    12    1
   12    11    13    1
   13    11    14    1
   14    14    15    1
   15    14    16    1
   16    14    17    1
   17    17    18    1
   18    17    19    1
   19    17    20    1
   20    20    21    1
   21    20    22    1
   22    20    23    1
   23    23    24    1
   24    23    25    1
   25    23    26    1
@<TRIPOS>SUBSTRUCTURE
       1 MOL1            1 RESIDUE      1      MOL     
@<SCITEGIC>MOL_PROPERTY
VM2 Rank
SciTegic.value.IntegerValue
67

@<SCITEGIC>MOL_PROPERTY
Conf_Id
SciTegic.value.IntegerValue
1371

@<SCITEGIC>MOL_PROPERTY
Probability
SciTegic.value.DoubleValue
0.43

@<SCITEGIC>MOL_PROPERTY
Sum Probability
SciTegic.value.DoubleValue
93.71

@<SCITEGIC>MOL_PROPERTY
Delta G
SciTegic.value.DoubleValue
1.716

@<SCITEGIC>MOL_PROPERTY
G
SciTegic.value.DoubleValue
49.977

@<SCITEGIC>MOL_PROPERTY
E
SciTegic.value.DoubleValue
17.226

@<SCITEGIC>MOL_PROPERTY
-TS
SciTegic.value.DoubleValue
32.751

@<SCITEGIC>MOL_PROPERTY
U+W
SciTegic.value.DoubleValue
-4.236

@<SCITEGIC>MOL_PROPERTY
U
SciTegic.value.DoubleValue
49.691

@<SCITEGIC>MOL_PROPERTY
W
SciTegic.value.DoubleValue
-53.927

@<SCITEGIC>MOL_PROPERTY
W(PB)
SciTegic.value.DoubleValue
-56.221

@<SCITEGIC>MOL_PROPERTY
W(SA)
SciTegic.value.DoubleValue
2.294

@<SCITEGIC>MOL_PROPERTY
Valence
SciTegic.value.DoubleValue
3.067

@<SCITEGIC>MOL_PROPERTY
Coulomb
SciTegic.value.DoubleValue
45.912

@<SCITEGIC>MOL_PROPERTY
VdW
SciTegic.value.DoubleValue
0.712

@<SCITEGIC>MOL_PROPERTY
VdW6
SciTegic.value.DoubleValue
-7.810

@<SCITEGIC>MOL_PROPERTY
VdW12
SciTegic.value.DoubleValue
8.522

@<SCITEGIC>MOL_PROPERTY
Bond
SciTegic.value.DoubleValue
0.215

@<SCITEGIC>MOL_PROPERTY
Angle
SciTegic.value.DoubleValue
0.855

@<SCITEGIC>MOL_PROPERTY
Pdih
SciTegic.value.DoubleValue
1.997

@<SCITEGIC>MOL_PROPERTY
Idih
SciTegic.value.DoubleValue
0.000

@<SCITEGIC>MOL_PROPERTY
Tether
SciTegic.value.DoubleValue
0.000

@<TRIPOS>MOLECULE
guest-s14_vm2.mol2 : vm2 ligand conformer 68
          26          25           1
SMALL
USER_CHARGES
 
@<TRIPOS>ATOM
       1    C1      19.252038   20.270412   20.629892 C.3        1 MOL1        -0.2400
       2    H1      18.977477   20.517136   21.663054 H          1 MOL1         0.0971
       3    H2      20.058465   20.946177   20.316911 H          1 MOL1         0.0971
       4    H3      18.378026   20.474691   19.998058 H          1 MOL1         0.0971
       5    C2      19.682986   18.792287   20.496305 C.3        1 MOL1        -0.1385
       6    H4      19.831091   18.561873   19.432049 H          1 MOL1         0.0960
       7    H5      18.869140   18.137066   20.834555 H          1 MOL1         0.0960
       8    C3      20.990695   18.459838   21.259231 C.3        1 MOL1        -0.1409
       9    H6      21.241572   17.403932   21.088171 H          1 MOL1         0.0960
      10    H7      21.814694   19.039129   20.820388 H          1 MOL1         0.0960
      11    C4      20.952115   18.728246   22.785797 C.3        1 MOL1        -0.1409
      12    H8      20.817945   19.802324   22.966970 H          1 MOL1         0.0960
      13    H9      21.933784   18.470541   23.206537 H          1 MOL1         0.0960
      14    C5      19.857759   17.918935   23.526280 C.3        1 MOL1        -0.1409
      15    H10     18.861832   18.233117   23.186737 H          1 MOL1         0.0960
      16    H11     19.956161   16.856004   23.266263 H          1 MOL1         0.0960
      17    C6      19.935597   18.064613   25.064032 C.3        1 MOL1        -0.1450
      18    H12     20.917202   17.722818   25.418411 H          1 MOL1         0.0960
      19    H13     19.188041   17.404101   25.523152 H          1 MOL1         0.0960
      20    C7      19.688692   19.509803   25.535885 C.3        1 MOL1         0.0172
      21    H14     20.452771   20.170884   25.118901 H          1 MOL1         0.0934
      22    H15     18.710433   19.849239   25.184923 H          1 MOL1         0.0934
      23    N1      19.721118   19.654866   27.043578 N.4        1 MOL1        -0.5956
      24    H16     19.005536   19.078393   27.498335 H          1 MOL1         0.3624
      25    H17     19.554719   20.623680   27.336947 H          1 MOL1         0.3624
      26    H18     20.626794   19.375855   27.434839 H          1 MOL1         0.3624
@<TRIPOS>BOND
    1     1     2    1
    2     1     3    1
    3     1     4    1
    4     1     5    1
    5     5     6    1
    6     5     7    1
    7     5     8    1
    8     8     9    1
    9     8    10    1
   10     8    11    1
   11    11    12    1
   12    11    13    1
   13    11    14    1
   14    14    15    1
   15    14    16    1
   16    14    17    1
   17    17    18    1
   18    17    19    1
   19    17    20    1
   20    20    21    1
   21    20    22    1
   22    20    23    1
   23    23    24    1
   24    23    25    1
   25    23    26    1
@<TRIPOS>SUBSTRUCTURE
       1 MOL1            1 RESIDUE      1      MOL     
@<SCITEGIC>MOL_PROPERTY
VM2 Rank
SciTegic.value.IntegerValue
68

@<SCITEGIC>MOL_PROPERTY
Conf_Id
SciTegic.value.IntegerValue
550

@<SCITEGIC>MOL_PROPERTY
Probability
SciTegic.value.DoubleValue
0.43

@<SCITEGIC>MOL_PROPERTY
Sum Probability
SciTegic.value.DoubleValue
94.14

@<SCITEGIC>MOL_PROPERTY
Delta G
SciTegic.value.DoubleValue
1.716

@<SCITEGIC>MOL_PROPERTY
G
SciTegic.value.DoubleValue
49.977

@<SCITEGIC>MOL_PROPERTY
E
SciTegic.value.DoubleValue
17.089

@<SCITEGIC>MOL_PROPERTY
-TS
SciTegic.value.DoubleValue
32.888

@<SCITEGIC>MOL_PROPERTY
U+W
SciTegic.value.DoubleValue
-4.373

@<SCITEGIC>MOL_PROPERTY
U
SciTegic.value.DoubleValue
49.255

@<SCITEGIC>MOL_PROPERTY
W
SciTegic.value.DoubleValue
-53.628

@<SCITEGIC>MOL_PROPERTY
W(PB)
SciTegic.value.DoubleValue
-55.892

@<SCITEGIC>MOL_PROPERTY
W(SA)
SciTegic.value.DoubleValue
2.264

@<SCITEGIC>MOL_PROPERTY
Valence
SciTegic.value.DoubleValue
3.394

@<SCITEGIC>MOL_PROPERTY
Coulomb
SciTegic.value.DoubleValue
45.181

@<SCITEGIC>MOL_PROPERTY
VdW
SciTegic.value.DoubleValue
0.680

@<SCITEGIC>MOL_PROPERTY
VdW6
SciTegic.value.DoubleValue
-8.024

@<SCITEGIC>MOL_PROPERTY
VdW12
SciTegic.value.DoubleValue
8.704

@<SCITEGIC>MOL_PROPERTY
Bond
SciTegic.value.DoubleValue
0.231

@<SCITEGIC>MOL_PROPERTY
Angle
SciTegic.value.DoubleValue
1.123

@<SCITEGIC>MOL_PROPERTY
Pdih
SciTegic.value.DoubleValue
2.041

@<SCITEGIC>MOL_PROPERTY
Idih
SciTegic.value.DoubleValue
0.000

@<SCITEGIC>MOL_PROPERTY
Tether
SciTegic.value.DoubleValue
0.000

@<TRIPOS>MOLECULE
guest-s14_vm2.mol2 : vm2 ligand conformer 69
          26          25           1
SMALL
USER_CHARGES
 
@<TRIPOS>ATOM
       1    C1      21.021670   19.885515   20.028360 C.3        1 MOL1        -0.2400
       2    H1      21.721037   19.425636   19.318145 H          1 MOL1         0.0971
       3    H2      20.251972   20.412567   19.449584 H          1 MOL1         0.0971
       4    H3      21.577118   20.628659   20.615225 H          1 MOL1         0.0971
       5    C2      20.391840   18.814463   20.943850 C.3        1 MOL1        -0.1385
       6    H4      21.192986   18.283297   21.474750 H          1 MOL1         0.0960
       7    H5      19.869294   18.069462   20.327773 H          1 MOL1         0.0960
       8    C3      19.403860   19.439510   21.956616 C.3        1 MOL1        -0.1409
       9    H6      19.932113   20.160066   22.594810 H          1 MOL1         0.0960
      10    H7      18.650019   20.019961   21.407087 H          1 MOL1         0.0960
      11    C4      18.669651   18.391989   22.832795 C.3        1 MOL1        -0.1409
      12    H8      18.064038   17.746503   22.181837 H          1 MOL1         0.0960
      13    H9      17.951804   18.913176   23.480401 H          1 MOL1         0.0960
      14    C5      19.589649   17.494436   23.703852 C.3        1 MOL1        -0.1409
      15    H10     18.958385   16.820699   24.299614 H          1 MOL1         0.0960
      16    H11     20.187855   16.841087   23.054926 H          1 MOL1         0.0960
      17    C6      20.535880   18.265496   24.657190 C.3        1 MOL1        -0.1450
      18    H12     21.257540   18.853352   24.075701 H          1 MOL1         0.0960
      19    H13     21.123830   17.540708   25.235757 H          1 MOL1         0.0960
      20    C7      19.776839   19.188441   25.628437 C.3        1 MOL1         0.0172
      21    H14     19.216308   19.937511   25.063080 H          1 MOL1         0.0934
      22    H15     19.068294   18.599737   26.217261 H          1 MOL1         0.0934
      23    N1      20.691611   19.919150   26.589901 N.4        1 MOL1        -0.5956
      24    H16     21.229250   19.269780   27.173346 H          1 MOL1         0.3624
      25    H17     20.166438   20.527815   27.227110 H          1 MOL1         0.3624
      26    H18     21.367041   20.513265   26.098143 H          1 MOL1         0.3624
@<TRIPOS>BOND
    1     1     2    1
    2     1     3    1
    3     1     4    1
    4     1     5    1
    5     5     6    1
    6     5     7    1
    7     5     8    1
    8     8     9    1
    9     8    10    1
   10     8    11    1
   11    11    12    1
   12    11    13    1
   13    11    14    1
   14    14    15    1
   15    14    16    1
   16    14    17    1
   17    17    18    1
   18    17    19    1
   19    17    20    1
   20    20    21    1
   21    20    22    1
   22    20    23    1
   23    23    24    1
   24    23    25    1
   25    23    26    1
@<TRIPOS>SUBSTRUCTURE
       1 MOL1            1 RESIDUE      1      MOL     
@<SCITEGIC>MOL_PROPERTY
VM2 Rank
SciTegic.value.IntegerValue
69

@<SCITEGIC>MOL_PROPERTY
Conf_Id
SciTegic.value.IntegerValue
567

@<SCITEGIC>MOL_PROPERTY
Probability
SciTegic.value.DoubleValue
0.42

@<SCITEGIC>MOL_PROPERTY
Sum Probability
SciTegic.value.DoubleValue
94.56

@<SCITEGIC>MOL_PROPERTY
Delta G
SciTegic.value.DoubleValue
1.737

@<SCITEGIC>MOL_PROPERTY
G
SciTegic.value.DoubleValue
49.998

@<SCITEGIC>MOL_PROPERTY
E
SciTegic.value.DoubleValue
16.961

@<SCITEGIC>MOL_PROPERTY
-TS
SciTegic.value.DoubleValue
33.037

@<SCITEGIC>MOL_PROPERTY
U+W
SciTegic.value.DoubleValue
-4.501

@<SCITEGIC>MOL_PROPERTY
U
SciTegic.value.DoubleValue
49.453

@<SCITEGIC>MOL_PROPERTY
W
SciTegic.value.DoubleValue
-53.954

@<SCITEGIC>MOL_PROPERTY
W(PB)
SciTegic.value.DoubleValue
-56.228

@<SCITEGIC>MOL_PROPERTY
W(SA)
SciTegic.value.DoubleValue
2.274

@<SCITEGIC>MOL_PROPERTY
Valence
SciTegic.value.DoubleValue
3.376

@<SCITEGIC>MOL_PROPERTY
Coulomb
SciTegic.value.DoubleValue
45.559

@<SCITEGIC>MOL_PROPERTY
VdW
SciTegic.value.DoubleValue
0.518

@<SCITEGIC>MOL_PROPERTY
VdW6
SciTegic.value.DoubleValue
-8.348

@<SCITEGIC>MOL_PROPERTY
VdW12
SciTegic.value.DoubleValue
8.866

@<SCITEGIC>MOL_PROPERTY
Bond
SciTegic.value.DoubleValue
0.240

@<SCITEGIC>MOL_PROPERTY
Angle
SciTegic.value.DoubleValue
1.236

@<SCITEGIC>MOL_PROPERTY
Pdih
SciTegic.value.DoubleValue
1.900

@<SCITEGIC>MOL_PROPERTY
Idih
SciTegic.value.DoubleValue
0.000

@<SCITEGIC>MOL_PROPERTY
Tether
SciTegic.value.DoubleValue
0.000

@<TRIPOS>MOLECULE
guest-s14_vm2.mol2 : vm2 ligand conformer 70
          26          25           1
SMALL
USER_CHARGES
 
@<TRIPOS>ATOM
       1    C1      19.194984   20.232622   20.627751 C.3        1 MOL1        -0.2400
       2    H1      19.027712   20.550239   21.664487 H          1 MOL1         0.0971
       3    H2      19.379410   21.135461   20.031336 H          1 MOL1         0.0971
       4    H3      18.272585   19.767276   20.256841 H          1 MOL1         0.0971
       5    C2      20.390342   19.259025   20.519861 C.3        1 MOL1        -0.1385
       6    H4      21.295632   19.738548   20.915568 H          1 MOL1         0.0960
       7    H5      20.593548   19.064844   19.457473 H          1 MOL1         0.0960
       8    C3      20.147622   17.903329   21.231094 C.3        1 MOL1        -0.1409
       9    H6      19.312781   17.387678   20.736844 H          1 MOL1         0.0960
      10    H7      21.027378   17.262487   21.081128 H          1 MOL1         0.0960
      11    C4      19.845096   17.997679   22.748829 C.3        1 MOL1        -0.1409
      12    H8      19.677601   16.981417   23.131274 H          1 MOL1         0.0960
      13    H9      18.902348   18.538010   22.902914 H          1 MOL1         0.0960
      14    C5      20.983130   18.662156   23.563853 C.3        1 MOL1        -0.1409
      15    H10     21.933365   18.161651   23.332205 H          1 MOL1         0.0960
      16    H11     21.100377   19.711318   23.261548 H          1 MOL1         0.0960
      17    C6      20.747384   18.600634   25.091139 C.3        1 MOL1        -0.1450
      18    H12     21.625855   19.013692   25.604537 H          1 MOL1         0.0960
      19    H13     20.660510   17.553312   25.409770 H          1 MOL1         0.0960
      20    C7      19.494193   19.381343   25.529530 C.3        1 MOL1         0.0172
      21    H14     19.581760   20.424560   25.214235 H          1 MOL1         0.0934
      22    H15     18.606762   18.952026   25.057434 H          1 MOL1         0.0934
      23    N1      19.278249   19.362212   27.028943 N.4        1 MOL1        -0.5956
      24    H16     20.067196   19.779064   27.533902 H          1 MOL1         0.3624
      25    H17     19.161718   18.408215   27.386003 H          1 MOL1         0.3624
      26    H18     18.439568   19.887100   27.299979 H          1 MOL1         0.3624
@<TRIPOS>BOND
    1     1     2    1
    2     1     3    1
    3     1     4    1
    4     1     5    1
    5     5     6    1
    6     5     7    1
    7     5     8    1
    8     8     9    1
    9     8    10    1
   10     8    11    1
   11    11    12    1
   12    11    13    1
   13    11    14    1
   14    14    15    1
   15    14    16    1
   16    14    17    1
   17    17    18    1
   18    17    19    1
   19    17    20    1
   20    20    21    1
   21    20    22    1
   22    20    23    1
   23    23    24    1
   24    23    25    1
   25    23    26    1
@<TRIPOS>SUBSTRUCTURE
       1 MOL1            1 RESIDUE      1      MOL     
@<SCITEGIC>MOL_PROPERTY
VM2 Rank
SciTegic.value.IntegerValue
70

@<SCITEGIC>MOL_PROPERTY
Conf_Id
SciTegic.value.IntegerValue
747

@<SCITEGIC>MOL_PROPERTY
Probability
SciTegic.value.DoubleValue
0.41

@<SCITEGIC>MOL_PROPERTY
Sum Probability
SciTegic.value.DoubleValue
94.97

@<SCITEGIC>MOL_PROPERTY
Delta G
SciTegic.value.DoubleValue
1.753

@<SCITEGIC>MOL_PROPERTY
G
SciTegic.value.DoubleValue
50.015

@<SCITEGIC>MOL_PROPERTY
E
SciTegic.value.DoubleValue
17.126

@<SCITEGIC>MOL_PROPERTY
-TS
SciTegic.value.DoubleValue
32.889

@<SCITEGIC>MOL_PROPERTY
U+W
SciTegic.value.DoubleValue
-4.336

@<SCITEGIC>MOL_PROPERTY
U
SciTegic.value.DoubleValue
49.255

@<SCITEGIC>MOL_PROPERTY
W
SciTegic.value.DoubleValue
-53.591

@<SCITEGIC>MOL_PROPERTY
W(PB)
SciTegic.value.DoubleValue
-55.889

@<SCITEGIC>MOL_PROPERTY
W(SA)
SciTegic.value.DoubleValue
2.298

@<SCITEGIC>MOL_PROPERTY
Valence
SciTegic.value.DoubleValue
3.394

@<SCITEGIC>MOL_PROPERTY
Coulomb
SciTegic.value.DoubleValue
45.180

@<SCITEGIC>MOL_PROPERTY
VdW
SciTegic.value.DoubleValue
0.680

@<SCITEGIC>MOL_PROPERTY
VdW6
SciTegic.value.DoubleValue
-8.024

@<SCITEGIC>MOL_PROPERTY
VdW12
SciTegic.value.DoubleValue
8.704

@<SCITEGIC>MOL_PROPERTY
Bond
SciTegic.value.DoubleValue
0.231

@<SCITEGIC>MOL_PROPERTY
Angle
SciTegic.value.DoubleValue
1.123

@<SCITEGIC>MOL_PROPERTY
Pdih
SciTegic.value.DoubleValue
2.041

@<SCITEGIC>MOL_PROPERTY
Idih
SciTegic.value.DoubleValue
0.000

@<SCITEGIC>MOL_PROPERTY
Tether
SciTegic.value.DoubleValue
0.000

@<TRIPOS>MOLECULE
guest-s14_vm2.mol2 : vm2 ligand conformer 71
          26          25           1
SMALL
USER_CHARGES
 
@<TRIPOS>ATOM
       1    C1      20.927514   18.340863   20.034129 C.3        1 MOL1        -0.2400
       2    H1      21.355164   17.794494   20.884012 H          1 MOL1         0.0971
       3    H2      20.842883   17.635900   19.197044 H          1 MOL1         0.0971
       4    H3      21.633449   19.128463   19.740381 H          1 MOL1         0.0971
       5    C2      19.544624   18.936327   20.382388 C.3        1 MOL1        -0.1385
       6    H4      18.862541   18.133534   20.692486 H          1 MOL1         0.0960
       7    H5      19.105669   19.366684   19.471461 H          1 MOL1         0.0960
       8    C3      19.604047   20.040189   21.469105 C.3        1 MOL1        -0.1409
       9    H6      20.185824   20.887429   21.080678 H          1 MOL1         0.0960
      10    H7      18.589074   20.425549   21.637834 H          1 MOL1         0.0960
      11    C4      20.210149   19.604760   22.828543 C.3        1 MOL1        -0.1409
      12    H8      20.221482   20.481784   23.488825 H          1 MOL1         0.0960
      13    H9      21.260646   19.315048   22.693921 H          1 MOL1         0.0960
      14    C5      19.431940   18.452274   23.512673 C.3        1 MOL1        -0.1409
      15    H10     18.377121   18.735909   23.631892 H          1 MOL1         0.0960
      16    H11     19.445672   17.565077   22.866343 H          1 MOL1         0.0960
      17    C6      20.019012   18.056592   24.888060 C.3        1 MOL1        -0.1450
      18    H12     21.070957   17.764263   24.770020 H          1 MOL1         0.0960
      19    H13     19.486646   17.171151   25.260234 H          1 MOL1         0.0960
      20    C7      19.907709   19.183877   25.931798 C.3        1 MOL1         0.0172
      21    H14     20.473177   20.057003   25.596556 H          1 MOL1         0.0934
      22    H15     18.860366   19.475293   26.048109 H          1 MOL1         0.0934
      23    N1      20.436006   18.784119   27.294303 N.4        1 MOL1        -0.5956
      24    H16     19.926707   17.982969   27.681557 H          1 MOL1         0.3624
      25    H17     20.352721   19.547666   27.974333 H          1 MOL1         0.3624
      26    H18     21.426847   18.523105   27.258416 H          1 MOL1         0.3624
@<TRIPOS>BOND
    1     1     2    1
    2     1     3    1
    3     1     4    1
    4     1     5    1
    5     5     6    1
    6     5     7    1
    7     5     8    1
    8     8     9    1
    9     8    10    1
   10     8    11    1
   11    11    12    1
   12    11    13    1
   13    11    14    1
   14    14    15    1
   15    14    16    1
   16    14    17    1
   17    17    18    1
   18    17    19    1
   19    17    20    1
   20    20    21    1
   21    20    22    1
   22    20    23    1
   23    23    24    1
   24    23    25    1
   25    23    26    1
@<TRIPOS>SUBSTRUCTURE
       1 MOL1            1 RESIDUE      1      MOL     
@<SCITEGIC>MOL_PROPERTY
VM2 Rank
SciTegic.value.IntegerValue
71

@<SCITEGIC>MOL_PROPERTY
Conf_Id
SciTegic.value.IntegerValue
1225

@<SCITEGIC>MOL_PROPERTY
Probability
SciTegic.value.DoubleValue
0.39

@<SCITEGIC>MOL_PROPERTY
Sum Probability
SciTegic.value.DoubleValue
95.36

@<SCITEGIC>MOL_PROPERTY
Delta G
SciTegic.value.DoubleValue
1.778

@<SCITEGIC>MOL_PROPERTY
G
SciTegic.value.DoubleValue
50.040

@<SCITEGIC>MOL_PROPERTY
E
SciTegic.value.DoubleValue
17.173

@<SCITEGIC>MOL_PROPERTY
-TS
SciTegic.value.DoubleValue
32.866

@<SCITEGIC>MOL_PROPERTY
U+W
SciTegic.value.DoubleValue
-4.289

@<SCITEGIC>MOL_PROPERTY
U
SciTegic.value.DoubleValue
49.209

@<SCITEGIC>MOL_PROPERTY
W
SciTegic.value.DoubleValue
-53.498

@<SCITEGIC>MOL_PROPERTY
W(PB)
SciTegic.value.DoubleValue
-55.784

@<SCITEGIC>MOL_PROPERTY
W(SA)
SciTegic.value.DoubleValue
2.286

@<SCITEGIC>MOL_PROPERTY
Valence
SciTegic.value.DoubleValue
3.465

@<SCITEGIC>MOL_PROPERTY
Coulomb
SciTegic.value.DoubleValue
44.958

@<SCITEGIC>MOL_PROPERTY
VdW
SciTegic.value.DoubleValue
0.786

@<SCITEGIC>MOL_PROPERTY
VdW6
SciTegic.value.DoubleValue
-7.903

@<SCITEGIC>MOL_PROPERTY
VdW12
SciTegic.value.DoubleValue
8.690

@<SCITEGIC>MOL_PROPERTY
Bond
SciTegic.value.DoubleValue
0.237

@<SCITEGIC>MOL_PROPERTY
Angle
SciTegic.value.DoubleValue
1.212

@<SCITEGIC>MOL_PROPERTY
Pdih
SciTegic.value.DoubleValue
2.015

@<SCITEGIC>MOL_PROPERTY
Idih
SciTegic.value.DoubleValue
0.000

@<SCITEGIC>MOL_PROPERTY
Tether
SciTegic.value.DoubleValue
0.000

@<TRIPOS>MOLECULE
guest-s14_vm2.mol2 : vm2 ligand conformer 72
          26          25           1
SMALL
USER_CHARGES
 
@<TRIPOS>ATOM
       1    C1      20.337289   17.951875   20.014390 C.3        1 MOL1        -0.2400
       2    H1      21.056890   17.776963   19.204188 H          1 MOL1         0.0971
       3    H2      20.631255   17.317402   20.859809 H          1 MOL1         0.0971
       4    H3      19.350151   17.623593   19.664051 H          1 MOL1         0.0971
       5    C2      20.318077   19.446123   20.408219 C.3        1 MOL1        -0.1385
       6    H4      20.137885   20.047048   19.505946 H          1 MOL1         0.0960
       7    H5      21.309038   19.746008   20.774194 H          1 MOL1         0.0960
       8    C3      19.230517   19.794000   21.456641 C.3        1 MOL1        -0.1409
       9    H6      19.267935   20.872966   21.660536 H          1 MOL1         0.0960
      10    H7      18.241826   19.606185   21.015765 H          1 MOL1         0.0960
      11    C4      19.328765   19.023826   22.799107 C.3        1 MOL1        -0.1409
      12    H8      19.187970   17.948952   22.624688 H          1 MOL1         0.0960
      13    H9      18.488248   19.339404   23.430940 H          1 MOL1         0.0960
      14    C5      20.661233   19.262454   23.553728 C.3        1 MOL1        -0.1409
      15    H10     21.500581   18.919389   22.934978 H          1 MOL1         0.0960
      16    H11     20.810039   20.339373   23.713119 H          1 MOL1         0.0960
      17    C6      20.729725   18.525015   24.911817 C.3        1 MOL1        -0.1450
      18    H12     21.734771   18.653053   25.335397 H          1 MOL1         0.0960
      19    H13     20.590168   17.447242   24.753989 H          1 MOL1         0.0960
      20    C7      19.689639   19.040102   25.924466 C.3        1 MOL1         0.0172
      21    H14     19.828178   20.113377   26.080245 H          1 MOL1         0.0934
      22    H15     18.681168   18.875497   25.536673 H          1 MOL1         0.0934
      23    N1      19.785755   18.355606   27.272633 N.4        1 MOL1        -0.5956
      24    H16     20.703632   18.495426   27.707540 H          1 MOL1         0.3624
      25    H17     19.637741   17.343760   27.198851 H          1 MOL1         0.3624
      26    H18     19.085630   18.712579   27.932008 H          1 MOL1         0.3624
@<TRIPOS>BOND
    1     1     2    1
    2     1     3    1
    3     1     4    1
    4     1     5    1
    5     5     6    1
    6     5     7    1
    7     5     8    1
    8     8     9    1
    9     8    10    1
   10     8    11    1
   11    11    12    1
   12    11    13    1
   13    11    14    1
   14    14    15    1
   15    14    16    1
   16    14    17    1
   17    17    18    1
   18    17    19    1
   19    17    20    1
   20    20    21    1
   21    20    22    1
   22    20    23    1
   23    23    24    1
   24    23    25    1
   25    23    26    1
@<TRIPOS>SUBSTRUCTURE
       1 MOL1            1 RESIDUE      1      MOL     
@<SCITEGIC>MOL_PROPERTY
VM2 Rank
SciTegic.value.IntegerValue
72

@<SCITEGIC>MOL_PROPERTY
Conf_Id
SciTegic.value.IntegerValue
508

@<SCITEGIC>MOL_PROPERTY
Probability
SciTegic.value.DoubleValue
0.37

@<SCITEGIC>MOL_PROPERTY
Sum Probability
SciTegic.value.DoubleValue
95.73

@<SCITEGIC>MOL_PROPERTY
Delta G
SciTegic.value.DoubleValue
1.805

@<SCITEGIC>MOL_PROPERTY
G
SciTegic.value.DoubleValue
50.067

@<SCITEGIC>MOL_PROPERTY
E
SciTegic.value.DoubleValue
17.200

@<SCITEGIC>MOL_PROPERTY
-TS
SciTegic.value.DoubleValue
32.867

@<SCITEGIC>MOL_PROPERTY
U+W
SciTegic.value.DoubleValue
-4.262

@<SCITEGIC>MOL_PROPERTY
U
SciTegic.value.DoubleValue
49.209

@<SCITEGIC>MOL_PROPERTY
W
SciTegic.value.DoubleValue
-53.471

@<SCITEGIC>MOL_PROPERTY
W(PB)
SciTegic.value.DoubleValue
-55.745

@<SCITEGIC>MOL_PROPERTY
W(SA)
SciTegic.value.DoubleValue
2.274

@<SCITEGIC>MOL_PROPERTY
Valence
SciTegic.value.DoubleValue
3.465

@<SCITEGIC>MOL_PROPERTY
Coulomb
SciTegic.value.DoubleValue
44.958

@<SCITEGIC>MOL_PROPERTY
VdW
SciTegic.value.DoubleValue
0.786

@<SCITEGIC>MOL_PROPERTY
VdW6
SciTegic.value.DoubleValue
-7.903

@<SCITEGIC>MOL_PROPERTY
VdW12
SciTegic.value.DoubleValue
8.689

@<SCITEGIC>MOL_PROPERTY
Bond
SciTegic.value.DoubleValue
0.237

@<SCITEGIC>MOL_PROPERTY
Angle
SciTegic.value.DoubleValue
1.212

@<SCITEGIC>MOL_PROPERTY
Pdih
SciTegic.value.DoubleValue
2.015

@<SCITEGIC>MOL_PROPERTY
Idih
SciTegic.value.DoubleValue
0.000

@<SCITEGIC>MOL_PROPERTY
Tether
SciTegic.value.DoubleValue
0.000

@<TRIPOS>MOLECULE
guest-s14_vm2.mol2 : vm2 ligand conformer 73
          26          25           1
SMALL
USER_CHARGES
 
@<TRIPOS>ATOM
       1    C1      20.376818   19.176744   19.597094 C.3        1 MOL1        -0.2400
       2    H1      21.023221   18.968891   18.734605 H          1 MOL1         0.0971
       3    H2      19.336467   19.027739   19.280114 H          1 MOL1         0.0971
       4    H3      20.508892   20.233537   19.859603 H          1 MOL1         0.0971
       5    C2      20.736712   18.247054   20.778315 C.3        1 MOL1        -0.1385
       6    H4      21.769895   18.439524   21.099592 H          1 MOL1         0.0960
       7    H5      20.713405   17.206036   20.426834 H          1 MOL1         0.0960
       8    C3      19.778439   18.382934   21.986396 C.3        1 MOL1        -0.1409
       9    H6      18.747561   18.186786   21.661109 H          1 MOL1         0.0960
      10    H7      20.031425   17.596001   22.708473 H          1 MOL1         0.0960
      11    C4      19.853983   19.766262   22.681194 C.3        1 MOL1        -0.1409
      12    H8      19.608454   20.552679   21.956049 H          1 MOL1         0.0960
      13    H9      20.885047   19.962981   23.003828 H          1 MOL1         0.0960
      14    C5      18.884789   19.910600   23.883449 C.3        1 MOL1        -0.1409
      15    H10     18.965707   20.932860   24.278275 H          1 MOL1         0.0960
      16    H11     17.850803   19.806277   23.526758 H          1 MOL1         0.0960
      17    C6      19.120886   18.908938   25.041433 C.3        1 MOL1        -0.1450
      18    H12     18.901824   17.887123   24.706702 H          1 MOL1         0.0960
      19    H13     18.407559   19.126510   25.847446 H          1 MOL1         0.0960
      20    C7      20.552434   18.975651   25.605161 C.3        1 MOL1         0.0172
      21    H14     21.269776   18.719365   24.821127 H          1 MOL1         0.0934
      22    H15     20.765483   19.991413   25.948927 H          1 MOL1         0.0934
      23    N1      20.776940   18.030816   26.767958 N.4        1 MOL1        -0.5956
      24    H16     20.618256   17.053379   26.502458 H          1 MOL1         0.3624
      25    H17     20.150305   18.235926   27.553084 H          1 MOL1         0.3624
      26    H18     21.735668   18.090817   27.127914 H          1 MOL1         0.3624
@<TRIPOS>BOND
    1     1     2    1
    2     1     3    1
    3     1     4    1
    4     1     5    1
    5     5     6    1
    6     5     7    1
    7     5     8    1
    8     8     9    1
    9     8    10    1
   10     8    11    1
   11    11    12    1
   12    11    13    1
   13    11    14    1
   14    14    15    1
   15    14    16    1
   16    14    17    1
   17    17    18    1
   18    17    19    1
   19    17    20    1
   20    20    21    1
   21    20    22    1
   22    20    23    1
   23    23    24    1
   24    23    25    1
   25    23    26    1
@<TRIPOS>SUBSTRUCTURE
       1 MOL1            1 RESIDUE      1      MOL     
@<SCITEGIC>MOL_PROPERTY
VM2 Rank
SciTegic.value.IntegerValue
73

@<SCITEGIC>MOL_PROPERTY
Conf_Id
SciTegic.value.IntegerValue
1328

@<SCITEGIC>MOL_PROPERTY
Probability
SciTegic.value.DoubleValue
0.35

@<SCITEGIC>MOL_PROPERTY
Sum Probability
SciTegic.value.DoubleValue
96.08

@<SCITEGIC>MOL_PROPERTY
Delta G
SciTegic.value.DoubleValue
1.844

@<SCITEGIC>MOL_PROPERTY
G
SciTegic.value.DoubleValue
50.105

@<SCITEGIC>MOL_PROPERTY
E
SciTegic.value.DoubleValue
17.344

@<SCITEGIC>MOL_PROPERTY
-TS
SciTegic.value.DoubleValue
32.762

@<SCITEGIC>MOL_PROPERTY
U+W
SciTegic.value.DoubleValue
-4.118

@<SCITEGIC>MOL_PROPERTY
U
SciTegic.value.DoubleValue
49.638

@<SCITEGIC>MOL_PROPERTY
W
SciTegic.value.DoubleValue
-53.757

@<SCITEGIC>MOL_PROPERTY
W(PB)
SciTegic.value.DoubleValue
-56.037

@<SCITEGIC>MOL_PROPERTY
W(SA)
SciTegic.value.DoubleValue
2.280

@<SCITEGIC>MOL_PROPERTY
Valence
SciTegic.value.DoubleValue
3.490

@<SCITEGIC>MOL_PROPERTY
Coulomb
SciTegic.value.DoubleValue
45.361

@<SCITEGIC>MOL_PROPERTY
VdW
SciTegic.value.DoubleValue
0.787

@<SCITEGIC>MOL_PROPERTY
VdW6
SciTegic.value.DoubleValue
-7.914

@<SCITEGIC>MOL_PROPERTY
VdW12
SciTegic.value.DoubleValue
8.702

@<SCITEGIC>MOL_PROPERTY
Bond
SciTegic.value.DoubleValue
0.240

@<SCITEGIC>MOL_PROPERTY
Angle
SciTegic.value.DoubleValue
1.203

@<SCITEGIC>MOL_PROPERTY
Pdih
SciTegic.value.DoubleValue
2.047

@<SCITEGIC>MOL_PROPERTY
Idih
SciTegic.value.DoubleValue
0.000

@<SCITEGIC>MOL_PROPERTY
Tether
SciTegic.value.DoubleValue
0.000

@<TRIPOS>MOLECULE
guest-s14_vm2.mol2 : vm2 ligand conformer 74
          26          25           1
SMALL
USER_CHARGES
 
@<TRIPOS>ATOM
       1    C1      19.072877   19.198072   20.075552 C.3        1 MOL1        -0.2400
       2    H1      18.896131   20.154906   20.582332 H          1 MOL1         0.0971
       3    H2      19.781579   19.369313   19.254976 H          1 MOL1         0.0971
       4    H3      18.120408   18.875772   19.635389 H          1 MOL1         0.0971
       5    C2      19.606234   18.128581   21.055290 C.3        1 MOL1        -0.1385
       6    H4      19.663409   17.164950   20.530184 H          1 MOL1         0.0960
       7    H5      18.887550   17.983475   21.872883 H          1 MOL1         0.0960
       8    C3      21.007311   18.463586   21.626825 C.3        1 MOL1        -0.1409
       9    H6      21.339794   17.634425   22.265268 H          1 MOL1         0.0960
      10    H7      21.727306   18.502534   20.797892 H          1 MOL1         0.0960
      11    C4      21.095859   19.794665   22.421152 C.3        1 MOL1        -0.1409
      12    H8      20.934670   20.637196   21.735528 H          1 MOL1         0.0960
      13    H9      22.122276   19.912265   22.794872 H          1 MOL1         0.0960
      14    C5      20.111029   19.921665   23.611939 C.3        1 MOL1        -0.1409
      15    H10     20.255515   20.906536   24.077367 H          1 MOL1         0.0960
      16    H11     19.075820   19.910123   23.245714 H          1 MOL1         0.0960
      17    C6      20.297973   18.826179   24.687436 C.3        1 MOL1        -0.1450
      18    H12     21.341856   18.817223   25.028068 H          1 MOL1         0.0960
      19    H13     20.088222   17.837805   24.259380 H          1 MOL1         0.0960
      20    C7      19.368550   19.058946   25.891447 C.3        1 MOL1         0.0172
      21    H14     19.581478   20.034109   26.337723 H          1 MOL1         0.0934
      22    H15     18.326983   19.052720   25.558965 H          1 MOL1         0.0934
      23    N1      19.521166   18.007305   26.971358 N.4        1 MOL1        -0.5956
      24    H16     19.307254   17.067249   26.622543 H          1 MOL1         0.3624
      25    H17     18.893687   18.181609   27.764009 H          1 MOL1         0.3624
      26    H18     20.475035   17.980512   27.346352 H          1 MOL1         0.3624
@<TRIPOS>BOND
    1     1     2    1
    2     1     3    1
    3     1     4    1
    4     1     5    1
    5     5     6    1
    6     5     7    1
    7     5     8    1
    8     8     9    1
    9     8    10    1
   10     8    11    1
   11    11    12    1
   12    11    13    1
   13    11    14    1
   14    14    15    1
   15    14    16    1
   16    14    17    1
   17    17    18    1
   18    17    19    1
   19    17    20    1
   20    20    21    1
   21    20    22    1
   22    20    23    1
   23    23    24    1
   24    23    25    1
   25    23    26    1
@<TRIPOS>SUBSTRUCTURE
       1 MOL1            1 RESIDUE      1      MOL     
@<SCITEGIC>MOL_PROPERTY
VM2 Rank
SciTegic.value.IntegerValue
74

@<SCITEGIC>MOL_PROPERTY
Conf_Id
SciTegic.value.IntegerValue
860

@<SCITEGIC>MOL_PROPERTY
Probability
SciTegic.value.DoubleValue
0.33

@<SCITEGIC>MOL_PROPERTY
Sum Probability
SciTegic.value.DoubleValue
96.42

@<SCITEGIC>MOL_PROPERTY
Delta G
SciTegic.value.DoubleValue
1.876

@<SCITEGIC>MOL_PROPERTY
G
SciTegic.value.DoubleValue
50.137

@<SCITEGIC>MOL_PROPERTY
E
SciTegic.value.DoubleValue
17.019

@<SCITEGIC>MOL_PROPERTY
-TS
SciTegic.value.DoubleValue
33.118

@<SCITEGIC>MOL_PROPERTY
U+W
SciTegic.value.DoubleValue
-4.443

@<SCITEGIC>MOL_PROPERTY
U
SciTegic.value.DoubleValue
49.278

@<SCITEGIC>MOL_PROPERTY
W
SciTegic.value.DoubleValue
-53.721

@<SCITEGIC>MOL_PROPERTY
W(PB)
SciTegic.value.DoubleValue
-55.978

@<SCITEGIC>MOL_PROPERTY
W(SA)
SciTegic.value.DoubleValue
2.257

@<SCITEGIC>MOL_PROPERTY
Valence
SciTegic.value.DoubleValue
3.566

@<SCITEGIC>MOL_PROPERTY
Coulomb
SciTegic.value.DoubleValue
45.108

@<SCITEGIC>MOL_PROPERTY
VdW
SciTegic.value.DoubleValue
0.604

@<SCITEGIC>MOL_PROPERTY
VdW6
SciTegic.value.DoubleValue
-8.326

@<SCITEGIC>MOL_PROPERTY
VdW12
SciTegic.value.DoubleValue
8.930

@<SCITEGIC>MOL_PROPERTY
Bond
SciTegic.value.DoubleValue
0.252

@<SCITEGIC>MOL_PROPERTY
Angle
SciTegic.value.DoubleValue
1.371

@<SCITEGIC>MOL_PROPERTY
Pdih
SciTegic.value.DoubleValue
1.943

@<SCITEGIC>MOL_PROPERTY
Idih
SciTegic.value.DoubleValue
0.000

@<SCITEGIC>MOL_PROPERTY
Tether
SciTegic.value.DoubleValue
0.000

@<TRIPOS>MOLECULE
guest-s14_vm2.mol2 : vm2 ligand conformer 75
          26          25           1
SMALL
USER_CHARGES
 
@<TRIPOS>ATOM
       1    C1      20.277193   19.991980   20.115586 C.3        1 MOL1        -0.2400
       2    H1      19.444252   20.516211   20.600339 H          1 MOL1         0.0971
       3    H2      20.967917   20.753081   19.730302 H          1 MOL1         0.0971
       4    H3      19.879736   19.433745   19.258073 H          1 MOL1         0.0971
       5    C2      21.004222   19.050320   21.101929 C.3        1 MOL1        -0.1385
       6    H4      21.381785   19.628128   21.956097 H          1 MOL1         0.0960
       7    H5      21.891209   18.633750   20.604627 H          1 MOL1         0.0960
       8    C3      20.119440   17.878238   21.597193 C.3        1 MOL1        -0.1409
       9    H6      19.839310   17.257746   20.734895 H          1 MOL1         0.0960
      10    H7      20.720594   17.226248   22.244636 H          1 MOL1         0.0960
      11    C4      18.825264   18.297704   22.345336 C.3        1 MOL1        -0.1409
      12    H8      18.296534   17.390003   22.667134 H          1 MOL1         0.0960
      13    H9      18.146736   18.799149   21.642433 H          1 MOL1         0.0960
      14    C5      19.040250   19.215741   23.576183 C.3        1 MOL1        -0.1409
      15    H10     19.474677   20.173134   23.259031 H          1 MOL1         0.0960
      16    H11     18.057344   19.457314   24.003974 H          1 MOL1         0.0960
      17    C6      19.922845   18.578881   24.674895 C.3        1 MOL1        -0.1450
      18    H12     20.932915   18.394838   24.287598 H          1 MOL1         0.0960
      19    H13     19.505100   17.606157   24.966609 H          1 MOL1         0.0960
      20    C7      20.018170   19.487228   25.913227 C.3        1 MOL1         0.0172
      21    H14     20.448713   20.451538   25.630055 H          1 MOL1         0.0934
      22    H15     19.018127   19.662695   26.318900 H          1 MOL1         0.0934
      23    N1      20.873615   18.898908   27.016650 N.4        1 MOL1        -0.5956
      24    H16     20.923170   19.519528   27.831991 H          1 MOL1         0.3624
      25    H17     21.837254   18.735182   26.707251 H          1 MOL1         0.3624
      26    H18     20.505866   18.000802   27.347365 H          1 MOL1         0.3624
@<TRIPOS>BOND
    1     1     2    1
    2     1     3    1
    3     1     4    1
    4     1     5    1
    5     5     6    1
    6     5     7    1
    7     5     8    1
    8     8     9    1
    9     8    10    1
   10     8    11    1
   11    11    12    1
   12    11    13    1
   13    11    14    1
   14    14    15    1
   15    14    16    1
   16    14    17    1
   17    17    18    1
   18    17    19    1
   19    17    20    1
   20    20    21    1
   21    20    22    1
   22    20    23    1
   23    23    24    1
   24    23    25    1
   25    23    26    1
@<TRIPOS>SUBSTRUCTURE
       1 MOL1            1 RESIDUE      1      MOL     
@<SCITEGIC>MOL_PROPERTY
VM2 Rank
SciTegic.value.IntegerValue
75

@<SCITEGIC>MOL_PROPERTY
Conf_Id
SciTegic.value.IntegerValue
956

@<SCITEGIC>MOL_PROPERTY
Probability
SciTegic.value.DoubleValue
0.33

@<SCITEGIC>MOL_PROPERTY
Sum Probability
SciTegic.value.DoubleValue
96.74

@<SCITEGIC>MOL_PROPERTY
Delta G
SciTegic.value.DoubleValue
1.884

@<SCITEGIC>MOL_PROPERTY
G
SciTegic.value.DoubleValue
50.145

@<SCITEGIC>MOL_PROPERTY
E
SciTegic.value.DoubleValue
17.027

@<SCITEGIC>MOL_PROPERTY
-TS
SciTegic.value.DoubleValue
33.118

@<SCITEGIC>MOL_PROPERTY
U+W
SciTegic.value.DoubleValue
-4.435

@<SCITEGIC>MOL_PROPERTY
U
SciTegic.value.DoubleValue
49.278

@<SCITEGIC>MOL_PROPERTY
W
SciTegic.value.DoubleValue
-53.712

@<SCITEGIC>MOL_PROPERTY
W(PB)
SciTegic.value.DoubleValue
-55.986

@<SCITEGIC>MOL_PROPERTY
W(SA)
SciTegic.value.DoubleValue
2.274

@<SCITEGIC>MOL_PROPERTY
Valence
SciTegic.value.DoubleValue
3.566

@<SCITEGIC>MOL_PROPERTY
Coulomb
SciTegic.value.DoubleValue
45.107

@<SCITEGIC>MOL_PROPERTY
VdW
SciTegic.value.DoubleValue
0.605

@<SCITEGIC>MOL_PROPERTY
VdW6
SciTegic.value.DoubleValue
-8.325

@<SCITEGIC>MOL_PROPERTY
VdW12
SciTegic.value.DoubleValue
8.930

@<SCITEGIC>MOL_PROPERTY
Bond
SciTegic.value.DoubleValue
0.252

@<SCITEGIC>MOL_PROPERTY
Angle
SciTegic.value.DoubleValue
1.371

@<SCITEGIC>MOL_PROPERTY
Pdih
SciTegic.value.DoubleValue
1.943

@<SCITEGIC>MOL_PROPERTY
Idih
SciTegic.value.DoubleValue
0.000

@<SCITEGIC>MOL_PROPERTY
Tether
SciTegic.value.DoubleValue
0.000

@<TRIPOS>MOLECULE
guest-s14_vm2.mol2 : vm2 ligand conformer 76
          26          25           1
SMALL
USER_CHARGES
 
@<TRIPOS>ATOM
       1    C1      19.874789   19.909661   19.764466 C.3        1 MOL1        -0.2400
       2    H1      19.034613   19.441067   19.235580 H          1 MOL1         0.0971
       3    H2      19.535227   20.877157   20.156696 H          1 MOL1         0.0971
       4    H3      20.668497   20.102976   19.031211 H          1 MOL1         0.0971
       5    C2      20.391738   19.001636   20.900353 C.3        1 MOL1        -0.1385
       6    H4      21.254350   19.484634   21.378270 H          1 MOL1         0.0960
       7    H5      20.751893   18.054544   20.474998 H          1 MOL1         0.0960
       8    C3      19.290757   18.717448   21.948958 C.3        1 MOL1        -0.1409
       9    H6      18.954621   19.660643   22.399373 H          1 MOL1         0.0960
      10    H7      18.412985   18.297374   21.438838 H          1 MOL1         0.0960
      11    C4      19.731456   17.726558   23.057073 C.3        1 MOL1        -0.1409
      12    H8      19.967974   16.758636   22.594123 H          1 MOL1         0.0960
      13    H9      18.876932   17.535250   23.719797 H          1 MOL1         0.0960
      14    C5      20.949287   18.181704   23.905777 C.3        1 MOL1        -0.1409
      15    H10     21.156632   17.414164   24.663368 H          1 MOL1         0.0960
      16    H11     21.845977   18.213374   23.272842 H          1 MOL1         0.0960
      17    C6      20.777520   19.555630   24.604911 C.3        1 MOL1        -0.1450
      18    H12     20.728320   20.350243   23.849457 H          1 MOL1         0.0960
      19    H13     21.670566   19.768949   25.207066 H          1 MOL1         0.0960
      20    C7      19.528622   19.646530   25.504413 C.3        1 MOL1         0.0172
      21    H14     19.458025   20.651952   25.928189 H          1 MOL1         0.0934
      22    H15     18.630755   19.464785   24.908030 H          1 MOL1         0.0934
      23    N1      19.536832   18.659833   26.655049 N.4        1 MOL1        -0.5956
      24    H16     20.343961   18.801040   27.271012 H          1 MOL1         0.3624
      25    H17     19.575919   17.691880   26.321337 H          1 MOL1         0.3624
      26    H18     18.696539   18.745361   27.236994 H          1 MOL1         0.3624
@<TRIPOS>BOND
    1     1     2    1
    2     1     3    1
    3     1     4    1
    4     1     5    1
    5     5     6    1
    6     5     7    1
    7     5     8    1
    8     8     9    1
    9     8    10    1
   10     8    11    1
   11    11    12    1
   12    11    13    1
   13    11    14    1
   14    14    15    1
   15    14    16    1
   16    14    17    1
   17    17    18    1
   18    17    19    1
   19    17    20    1
   20    20    21    1
   21    20    22    1
   22    20    23    1
   23    23    24    1
   24    23    25    1
   25    23    26    1
@<TRIPOS>SUBSTRUCTURE
       1 MOL1            1 RESIDUE      1      MOL     
@<SCITEGIC>MOL_PROPERTY
VM2 Rank
SciTegic.value.IntegerValue
76

@<SCITEGIC>MOL_PROPERTY
Conf_Id
SciTegic.value.IntegerValue
223

@<SCITEGIC>MOL_PROPERTY
Probability
SciTegic.value.DoubleValue
0.22

@<SCITEGIC>MOL_PROPERTY
Sum Probability
SciTegic.value.DoubleValue
96.96

@<SCITEGIC>MOL_PROPERTY
Delta G
SciTegic.value.DoubleValue
2.133

@<SCITEGIC>MOL_PROPERTY
G
SciTegic.value.DoubleValue
50.395

@<SCITEGIC>MOL_PROPERTY
E
SciTegic.value.DoubleValue
17.165

@<SCITEGIC>MOL_PROPERTY
-TS
SciTegic.value.DoubleValue
33.230

@<SCITEGIC>MOL_PROPERTY
U+W
SciTegic.value.DoubleValue
-4.297

@<SCITEGIC>MOL_PROPERTY
U
SciTegic.value.DoubleValue
49.635

@<SCITEGIC>MOL_PROPERTY
W
SciTegic.value.DoubleValue
-53.931

@<SCITEGIC>MOL_PROPERTY
W(PB)
SciTegic.value.DoubleValue
-56.188

@<SCITEGIC>MOL_PROPERTY
W(SA)
SciTegic.value.DoubleValue
2.257

@<SCITEGIC>MOL_PROPERTY
Valence
SciTegic.value.DoubleValue
3.474

@<SCITEGIC>MOL_PROPERTY
Coulomb
SciTegic.value.DoubleValue
45.628

@<SCITEGIC>MOL_PROPERTY
VdW
SciTegic.value.DoubleValue
0.532

@<SCITEGIC>MOL_PROPERTY
VdW6
SciTegic.value.DoubleValue
-9.030

@<SCITEGIC>MOL_PROPERTY
VdW12
SciTegic.value.DoubleValue
9.562

@<SCITEGIC>MOL_PROPERTY
Bond
SciTegic.value.DoubleValue
0.265

@<SCITEGIC>MOL_PROPERTY
Angle
SciTegic.value.DoubleValue
1.304

@<SCITEGIC>MOL_PROPERTY
Pdih
SciTegic.value.DoubleValue
1.905

@<SCITEGIC>MOL_PROPERTY
Idih
SciTegic.value.DoubleValue
0.000

@<SCITEGIC>MOL_PROPERTY
Tether
SciTegic.value.DoubleValue
0.000

@<TRIPOS>MOLECULE
guest-s14_vm2.mol2 : vm2 ligand conformer 77
          26          25           1
SMALL
USER_CHARGES
 
@<TRIPOS>ATOM
       1    C1      19.212153   19.718765   20.175063 C.3        1 MOL1        -0.2400
       2    H1      19.215900   18.980991   19.362292 H          1 MOL1         0.0971
       3    H2      18.341818   19.522372   20.813452 H          1 MOL1         0.0971
       4    H3      19.076840   20.711690   19.727177 H          1 MOL1         0.0971
       5    C2      20.529524   19.663067   20.981047 C.3        1 MOL1        -0.1385
       6    H4      20.498056   20.400266   21.794415 H          1 MOL1         0.0960
       7    H5      21.357411   19.971183   20.327400 H          1 MOL1         0.0960
       8    C3      20.844302   18.254848   21.546452 C.3        1 MOL1        -0.1409
       9    H6      20.971706   17.557368   20.707211 H          1 MOL1         0.0960
      10    H7      21.817617   18.283214   22.053785 H          1 MOL1         0.0960
      11    C4      19.774701   17.675856   22.511599 C.3        1 MOL1        -0.1409
      12    H8      20.117452   16.694290   22.866658 H          1 MOL1         0.0960
      13    H9      18.851067   17.479106   21.951124 H          1 MOL1         0.0960
      14    C5      19.436717   18.562522   23.737977 C.3        1 MOL1        -0.1409
      15    H10     19.000518   19.513351   23.404198 H          1 MOL1         0.0960
      16    H11     18.652422   18.056718   24.316247 H          1 MOL1         0.0960
      17    C6      20.654609   18.838642   24.654731 C.3        1 MOL1        -0.1450
      18    H12     21.428600   19.374738   24.091513 H          1 MOL1         0.0960
      19    H13     21.102484   17.890834   24.981449 H          1 MOL1         0.0960
      20    C7      20.289682   19.687751   25.887680 C.3        1 MOL1         0.0172
      21    H14     21.200153   19.930563   26.442321 H          1 MOL1         0.0934
      22    H15     19.826752   20.624447   25.565680 H          1 MOL1         0.0934
      23    N1      19.339311   18.997548   26.846451 N.4        1 MOL1        -0.5956
      24    H16     19.729270   18.118651   27.202055 H          1 MOL1         0.3624
      25    H17     18.445023   18.773418   26.399433 H          1 MOL1         0.3624
      26    H18     19.128913   19.583487   27.661728 H          1 MOL1         0.3624
@<TRIPOS>BOND
    1     1     2    1
    2     1     3    1
    3     1     4    1
    4     1     5    1
    5     5     6    1
    6     5     7    1
    7     5     8    1
    8     8     9    1
    9     8    10    1
   10     8    11    1
   11    11    12    1
   12    11    13    1
   13    11    14    1
   14    14    15    1
   15    14    16    1
   16    14    17    1
   17    17    18    1
   18    17    19    1
   19    17    20    1
   20    20    21    1
   21    20    22    1
   22    20    23    1
   23    23    24    1
   24    23    25    1
   25    23    26    1
@<TRIPOS>SUBSTRUCTURE
       1 MOL1            1 RESIDUE      1      MOL     
@<SCITEGIC>MOL_PROPERTY
VM2 Rank
SciTegic.value.IntegerValue
77

@<SCITEGIC>MOL_PROPERTY
Conf_Id
SciTegic.value.IntegerValue
215

@<SCITEGIC>MOL_PROPERTY
Probability
SciTegic.value.DoubleValue
0.20

@<SCITEGIC>MOL_PROPERTY
Sum Probability
SciTegic.value.DoubleValue
97.16

@<SCITEGIC>MOL_PROPERTY
Delta G
SciTegic.value.DoubleValue
2.164

@<SCITEGIC>MOL_PROPERTY
G
SciTegic.value.DoubleValue
50.426

@<SCITEGIC>MOL_PROPERTY
E
SciTegic.value.DoubleValue
17.208

@<SCITEGIC>MOL_PROPERTY
-TS
SciTegic.value.DoubleValue
33.217

@<SCITEGIC>MOL_PROPERTY
U+W
SciTegic.value.DoubleValue
-4.254

@<SCITEGIC>MOL_PROPERTY
U
SciTegic.value.DoubleValue
49.638

@<SCITEGIC>MOL_PROPERTY
W
SciTegic.value.DoubleValue
-53.891

@<SCITEGIC>MOL_PROPERTY
W(PB)
SciTegic.value.DoubleValue
-56.131

@<SCITEGIC>MOL_PROPERTY
W(SA)
SciTegic.value.DoubleValue
2.239

@<SCITEGIC>MOL_PROPERTY
Valence
SciTegic.value.DoubleValue
3.692

@<SCITEGIC>MOL_PROPERTY
Coulomb
SciTegic.value.DoubleValue
45.199

@<SCITEGIC>MOL_PROPERTY
VdW
SciTegic.value.DoubleValue
0.747

@<SCITEGIC>MOL_PROPERTY
VdW6
SciTegic.value.DoubleValue
-8.826

@<SCITEGIC>MOL_PROPERTY
VdW12
SciTegic.value.DoubleValue
9.573

@<SCITEGIC>MOL_PROPERTY
Bond
SciTegic.value.DoubleValue
0.278

@<SCITEGIC>MOL_PROPERTY
Angle
SciTegic.value.DoubleValue
1.445

@<SCITEGIC>MOL_PROPERTY
Pdih
SciTegic.value.DoubleValue
1.968

@<SCITEGIC>MOL_PROPERTY
Idih
SciTegic.value.DoubleValue
0.000

@<SCITEGIC>MOL_PROPERTY
Tether
SciTegic.value.DoubleValue
0.000

@<TRIPOS>MOLECULE
guest-s14_vm2.mol2 : vm2 ligand conformer 78
          26          25           1
SMALL
USER_CHARGES
 
@<TRIPOS>ATOM
       1    C1      19.738873   20.066199   20.192459 C.3        1 MOL1        -0.2400
       2    H1      18.900604   20.595205   19.721005 H          1 MOL1         0.0971
       3    H2      20.230948   20.768906   20.876314 H          1 MOL1         0.0971
       4    H3      20.453025   19.797105   19.403473 H          1 MOL1         0.0971
       5    C2      19.235821   18.809343   20.937730 C.3        1 MOL1        -0.1385
       6    H4      18.658479   18.190085   20.237171 H          1 MOL1         0.0960
       7    H5      18.533033   19.103656   21.728609 H          1 MOL1         0.0960
       8    C3      20.379763   17.948351   21.530974 C.3        1 MOL1        -0.1409
       9    H6      19.948343   17.049792   21.991411 H          1 MOL1         0.0960
      10    H7      21.009660   17.582368   20.708587 H          1 MOL1         0.0960
      11    C4      21.286221   18.673473   22.562148 C.3        1 MOL1        -0.1409
      12    H8      21.855242   19.461795   22.051553 H          1 MOL1         0.0960
      13    H9      22.037100   17.961255   22.930853 H          1 MOL1         0.0960
      14    C5      20.547085   19.295393   23.775120 C.3        1 MOL1        -0.1409
      15    H10     21.292419   19.799093   24.404499 H          1 MOL1         0.0960
      16    H11     19.860070   20.080694   23.432967 H          1 MOL1         0.0960
      17    C6      19.773244   18.256989   24.625314 C.3        1 MOL1        -0.1450
      18    H12     20.453242   17.462351   24.959726 H          1 MOL1         0.0960
      19    H13     19.003402   17.774241   24.010519 H          1 MOL1         0.0960
      20    C7      19.078904   18.888604   25.847309 C.3        1 MOL1         0.0172
      21    H14     18.414748   19.692510   25.518645 H          1 MOL1         0.0934
      22    H15     18.473097   18.130622   26.351295 H          1 MOL1         0.0934
      23    N1      20.041090   19.460649   26.869947 N.4        1 MOL1        -0.5956
      24    H16     20.679190   18.745505   27.233790 H          1 MOL1         0.3624
      25    H17     19.547352   19.859532   27.675790 H          1 MOL1         0.3624
      26    H18     20.618388   20.207807   26.472090 H          1 MOL1         0.3624
@<TRIPOS>BOND
    1     1     2    1
    2     1     3    1
    3     1     4    1
    4     1     5    1
    5     5     6    1
    6     5     7    1
    7     5     8    1
    8     8     9    1
    9     8    10    1
   10     8    11    1
   11    11    12    1
   12    11    13    1
   13    11    14    1
   14    14    15    1
   15    14    16    1
   16    14    17    1
   17    17    18    1
   18    17    19    1
   19    17    20    1
   20    20    21    1
   21    20    22    1
   22    20    23    1
   23    23    24    1
   24    23    25    1
   25    23    26    1
@<TRIPOS>SUBSTRUCTURE
       1 MOL1            1 RESIDUE      1      MOL     
@<SCITEGIC>MOL_PROPERTY
VM2 Rank
SciTegic.value.IntegerValue
78

@<SCITEGIC>MOL_PROPERTY
Conf_Id
SciTegic.value.IntegerValue
464

@<SCITEGIC>MOL_PROPERTY
Probability
SciTegic.value.DoubleValue
0.20

@<SCITEGIC>MOL_PROPERTY
Sum Probability
SciTegic.value.DoubleValue
97.36

@<SCITEGIC>MOL_PROPERTY
Delta G
SciTegic.value.DoubleValue
2.185

@<SCITEGIC>MOL_PROPERTY
G
SciTegic.value.DoubleValue
50.446

@<SCITEGIC>MOL_PROPERTY
E
SciTegic.value.DoubleValue
17.229

@<SCITEGIC>MOL_PROPERTY
-TS
SciTegic.value.DoubleValue
33.217

@<SCITEGIC>MOL_PROPERTY
U+W
SciTegic.value.DoubleValue
-4.232

@<SCITEGIC>MOL_PROPERTY
U
SciTegic.value.DoubleValue
49.638

@<SCITEGIC>MOL_PROPERTY
W
SciTegic.value.DoubleValue
-53.870

@<SCITEGIC>MOL_PROPERTY
W(PB)
SciTegic.value.DoubleValue
-56.099

@<SCITEGIC>MOL_PROPERTY
W(SA)
SciTegic.value.DoubleValue
2.229

@<SCITEGIC>MOL_PROPERTY
Valence
SciTegic.value.DoubleValue
3.691

@<SCITEGIC>MOL_PROPERTY
Coulomb
SciTegic.value.DoubleValue
45.199

@<SCITEGIC>MOL_PROPERTY
VdW
SciTegic.value.DoubleValue
0.747

@<SCITEGIC>MOL_PROPERTY
VdW6
SciTegic.value.DoubleValue
-8.826

@<SCITEGIC>MOL_PROPERTY
VdW12
SciTegic.value.DoubleValue
9.573

@<SCITEGIC>MOL_PROPERTY
Bond
SciTegic.value.DoubleValue
0.278

@<SCITEGIC>MOL_PROPERTY
Angle
SciTegic.value.DoubleValue
1.445

@<SCITEGIC>MOL_PROPERTY
Pdih
SciTegic.value.DoubleValue
1.968

@<SCITEGIC>MOL_PROPERTY
Idih
SciTegic.value.DoubleValue
0.000

@<SCITEGIC>MOL_PROPERTY
Tether
SciTegic.value.DoubleValue
0.000

@<TRIPOS>MOLECULE
guest-s14_vm2.mol2 : vm2 ligand conformer 79
          26          25           1
SMALL
USER_CHARGES
 
@<TRIPOS>ATOM
       1    C1      19.269850   19.273514   19.994062 C.3        1 MOL1        -0.2400
       2    H1      18.478116   19.443779   20.734247 H          1 MOL1         0.0971
       3    H2      19.644873   20.249552   19.659923 H          1 MOL1         0.0971
       4    H3      18.812355   18.775196   19.129646 H          1 MOL1         0.0971
       5    C2      20.411548   18.409390   20.575483 C.3        1 MOL1        -0.1385
       6    H4      21.116685   18.166117   19.768472 H          1 MOL1         0.0960
       7    H5      20.009638   17.447764   20.921330 H          1 MOL1         0.0960
       8    C3      21.192877   19.107059   21.718176 C.3        1 MOL1        -0.1409
       9    H6      21.997492   18.439334   22.055522 H          1 MOL1         0.0960
      10    H7      21.692492   19.997388   21.312164 H          1 MOL1         0.0960
      11    C4      20.342941   19.531767   22.943810 C.3        1 MOL1        -0.1409
      12    H8      19.599478   20.281206   22.641881 H          1 MOL1         0.0960
      13    H9      21.008307   20.037094   23.655883 H          1 MOL1         0.0960
      14    C5      19.635541   18.346038   23.647616 C.3        1 MOL1        -0.1409
      15    H10     18.948114   17.859548   22.943529 H          1 MOL1         0.0960
      16    H11     20.375762   17.585144   23.928327 H          1 MOL1         0.0960
      17    C6      18.820056   18.775186   24.893364 C.3        1 MOL1        -0.1450
      18    H12     18.302374   17.899236   25.306283 H          1 MOL1         0.0960
      19    H13     18.034186   19.478122   24.586557 H          1 MOL1         0.0960
      20    C7      19.663803   19.430668   26.005643 C.3        1 MOL1         0.0172
      21    H14     20.143377   20.335074   25.622856 H          1 MOL1         0.0934
      22    H15     19.010864   19.718414   26.834113 H          1 MOL1         0.0934
      23    N1      20.744384   18.525377   26.562847 N.4        1 MOL1        -0.5956
      24    H16     21.411040   18.243540   25.837487 H          1 MOL1         0.3624
      25    H17     20.352112   17.667727   26.964625 H          1 MOL1         0.3624
      26    H18     21.282325   18.985780   27.305002 H          1 MOL1         0.3624
@<TRIPOS>BOND
    1     1     2    1
    2     1     3    1
    3     1     4    1
    4     1     5    1
    5     5     6    1
    6     5     7    1
    7     5     8    1
    8     8     9    1
    9     8    10    1
   10     8    11    1
   11    11    12    1
   12    11    13    1
   13    11    14    1
   14    14    15    1
   15    14    16    1
   16    14    17    1
   17    17    18    1
   18    17    19    1
   19    17    20    1
   20    20    21    1
   21    20    22    1
   22    20    23    1
   23    23    24    1
   24    23    25    1
   25    23    26    1
@<TRIPOS>SUBSTRUCTURE
       1 MOL1            1 RESIDUE      1      MOL     
@<SCITEGIC>MOL_PROPERTY
VM2 Rank
SciTegic.value.IntegerValue
79

@<SCITEGIC>MOL_PROPERTY
Conf_Id
SciTegic.value.IntegerValue
68

@<SCITEGIC>MOL_PROPERTY
Probability
SciTegic.value.DoubleValue
0.19

@<SCITEGIC>MOL_PROPERTY
Sum Probability
SciTegic.value.DoubleValue
97.55

@<SCITEGIC>MOL_PROPERTY
Delta G
SciTegic.value.DoubleValue
2.204

@<SCITEGIC>MOL_PROPERTY
G
SciTegic.value.DoubleValue
50.466

@<SCITEGIC>MOL_PROPERTY
E
SciTegic.value.DoubleValue
17.411

@<SCITEGIC>MOL_PROPERTY
-TS
SciTegic.value.DoubleValue
33.055

@<SCITEGIC>MOL_PROPERTY
U+W
SciTegic.value.DoubleValue
-4.051

@<SCITEGIC>MOL_PROPERTY
U
SciTegic.value.DoubleValue
49.822

@<SCITEGIC>MOL_PROPERTY
W
SciTegic.value.DoubleValue
-53.873

@<SCITEGIC>MOL_PROPERTY
W(PB)
SciTegic.value.DoubleValue
-56.118

@<SCITEGIC>MOL_PROPERTY
W(SA)
SciTegic.value.DoubleValue
2.246

@<SCITEGIC>MOL_PROPERTY
Valence
SciTegic.value.DoubleValue
3.548

@<SCITEGIC>MOL_PROPERTY
Coulomb
SciTegic.value.DoubleValue
45.475

@<SCITEGIC>MOL_PROPERTY
VdW
SciTegic.value.DoubleValue
0.799

@<SCITEGIC>MOL_PROPERTY
VdW6
SciTegic.value.DoubleValue
-8.640

@<SCITEGIC>MOL_PROPERTY
VdW12
SciTegic.value.DoubleValue
9.439

@<SCITEGIC>MOL_PROPERTY
Bond
SciTegic.value.DoubleValue
0.263

@<SCITEGIC>MOL_PROPERTY
Angle
SciTegic.value.DoubleValue
1.337

@<SCITEGIC>MOL_PROPERTY
Pdih
SciTegic.value.DoubleValue
1.948

@<SCITEGIC>MOL_PROPERTY
Idih
SciTegic.value.DoubleValue
0.000

@<SCITEGIC>MOL_PROPERTY
Tether
SciTegic.value.DoubleValue
0.000

@<TRIPOS>MOLECULE
guest-s14_vm2.mol2 : vm2 ligand conformer 80
          26          25           1
SMALL
USER_CHARGES
 
@<TRIPOS>ATOM
       1    C1      20.134416   19.843535   20.022962 C.3        1 MOL1        -0.2400
       2    H1      19.106186   19.894795   19.642100 H          1 MOL1         0.0971
       3    H2      20.255094   20.615031   20.793635 H          1 MOL1         0.0971
       4    H3      20.812022   20.093429   19.196379 H          1 MOL1         0.0971
       5    C2      20.451920   18.436144   20.576748 C.3        1 MOL1        -0.1385
       6    H4      21.476942   18.414908   20.970125 H          1 MOL1         0.0960
       7    H5      20.435451   17.717394   19.745609 H          1 MOL1         0.0960
       8    C3      19.450973   17.959053   21.660008 C.3        1 MOL1        -0.1409
       9    H6      18.455788   17.864299   21.204186 H          1 MOL1         0.0960
      10    H7      19.732002   16.946218   21.979778 H          1 MOL1         0.0960
      11    C4      19.338362   18.869537   22.910320 C.3        1 MOL1        -0.1409
      12    H8      18.579508   18.436294   23.574818 H          1 MOL1         0.0960
      13    H9      18.956742   19.857442   22.620551 H          1 MOL1         0.0960
      14    C5      20.672631   19.029132   23.682308 C.3        1 MOL1        -0.1409
      15    H10     21.066926   18.040330   23.951548 H          1 MOL1         0.0960
      16    H11     21.422570   19.489663   23.026206 H          1 MOL1         0.0960
      17    C6      20.541470   19.909287   24.950850 C.3        1 MOL1        -0.1450
      18    H12     20.219706   20.917946   24.659445 H          1 MOL1         0.0960
      19    H13     21.530169   20.025828   25.414182 H          1 MOL1         0.0960
      20    C7      19.555691   19.359595   26.001949 C.3        1 MOL1         0.0172
      21    H14     19.509840   20.047400   26.850660 H          1 MOL1         0.0934
      22    H15     18.554461   19.288384   25.569589 H          1 MOL1         0.0934
      23    N1      19.935537   17.992718   26.535854 N.4        1 MOL1        -0.5956
      24    H16     20.858575   18.001674   26.981713 H          1 MOL1         0.3624
      25    H17     19.965797   17.291511   25.789262 H          1 MOL1         0.3624
      26    H18     19.266454   17.658012   27.237598 H          1 MOL1         0.3624
@<TRIPOS>BOND
    1     1     2    1
    2     1     3    1
    3     1     4    1
    4     1     5    1
    5     5     6    1
    6     5     7    1
    7     5     8    1
    8     8     9    1
    9     8    10    1
   10     8    11    1
   11    11    12    1
   12    11    13    1
   13    11    14    1
   14    14    15    1
   15    14    16    1
   16    14    17    1
   17    17    18    1
   18    17    19    1
   19    17    20    1
   20    20    21    1
   21    20    22    1
   22    20    23    1
   23    23    24    1
   24    23    25    1
   25    23    26    1
@<TRIPOS>SUBSTRUCTURE
       1 MOL1            1 RESIDUE      1      MOL     
@<SCITEGIC>MOL_PROPERTY
VM2 Rank
SciTegic.value.IntegerValue
80

@<SCITEGIC>MOL_PROPERTY
Conf_Id
SciTegic.value.IntegerValue
67

@<SCITEGIC>MOL_PROPERTY
Probability
SciTegic.value.DoubleValue
0.18

@<SCITEGIC>MOL_PROPERTY
Sum Probability
SciTegic.value.DoubleValue
97.73

@<SCITEGIC>MOL_PROPERTY
Delta G
SciTegic.value.DoubleValue
2.225

@<SCITEGIC>MOL_PROPERTY
G
SciTegic.value.DoubleValue
50.487

@<SCITEGIC>MOL_PROPERTY
E
SciTegic.value.DoubleValue
17.432

@<SCITEGIC>MOL_PROPERTY
-TS
SciTegic.value.DoubleValue
33.055

@<SCITEGIC>MOL_PROPERTY
U+W
SciTegic.value.DoubleValue
-4.030

@<SCITEGIC>MOL_PROPERTY
U
SciTegic.value.DoubleValue
49.822

@<SCITEGIC>MOL_PROPERTY
W
SciTegic.value.DoubleValue
-53.852

@<SCITEGIC>MOL_PROPERTY
W(PB)
SciTegic.value.DoubleValue
-56.097

@<SCITEGIC>MOL_PROPERTY
W(SA)
SciTegic.value.DoubleValue
2.246

@<SCITEGIC>MOL_PROPERTY
Valence
SciTegic.value.DoubleValue
3.548

@<SCITEGIC>MOL_PROPERTY
Coulomb
SciTegic.value.DoubleValue
45.475

@<SCITEGIC>MOL_PROPERTY
VdW
SciTegic.value.DoubleValue
0.799

@<SCITEGIC>MOL_PROPERTY
VdW6
SciTegic.value.DoubleValue
-8.641

@<SCITEGIC>MOL_PROPERTY
VdW12
SciTegic.value.DoubleValue
9.440

@<SCITEGIC>MOL_PROPERTY
Bond
SciTegic.value.DoubleValue
0.263

@<SCITEGIC>MOL_PROPERTY
Angle
SciTegic.value.DoubleValue
1.337

@<SCITEGIC>MOL_PROPERTY
Pdih
SciTegic.value.DoubleValue
1.948

@<SCITEGIC>MOL_PROPERTY
Idih
SciTegic.value.DoubleValue
0.000

@<SCITEGIC>MOL_PROPERTY
Tether
SciTegic.value.DoubleValue
0.000

@<TRIPOS>MOLECULE
guest-s14_vm2.mol2 : vm2 ligand conformer 81
          26          25           1
SMALL
USER_CHARGES
 
@<TRIPOS>ATOM
       1    C1      20.431442   19.214793   19.895365 C.3        1 MOL1        -0.2400
       2    H1      20.473175   20.248907   20.259275 H          1 MOL1         0.0971
       3    H2      21.272054   19.073270   19.203873 H          1 MOL1         0.0971
       4    H3      19.502084   19.087976   19.325162 H          1 MOL1         0.0971
       5    C2      20.511176   18.201396   21.059323 C.3        1 MOL1        -0.1385
       6    H4      21.440838   18.357253   21.622629 H          1 MOL1         0.0960
       7    H5      20.578446   17.187346   20.641293 H          1 MOL1         0.0960
       8    C3      19.290319   18.262856   22.012044 C.3        1 MOL1        -0.1409
       9    H6      18.384758   18.010710   21.443385 H          1 MOL1         0.0960
      10    H7      19.389882   17.475342   22.770723 H          1 MOL1         0.0960
      11    C4      19.069770   19.630115   22.713327 C.3        1 MOL1        -0.1409
      12    H8      18.185144   19.555418   23.359785 H          1 MOL1         0.0960
      13    H9      18.812615   20.386327   21.959831 H          1 MOL1         0.0960
      14    C5      20.273257   20.145244   23.547705 C.3        1 MOL1        -0.1409
      15    H10     21.114901   20.368897   22.878785 H          1 MOL1         0.0960
      16    H11     19.996565   21.104508   24.006500 H          1 MOL1         0.0960
      17    C6      20.752364   19.179132   24.659390 C.3        1 MOL1        -0.1450
      18    H12     21.593837   19.641439   25.192225 H          1 MOL1         0.0960
      19    H13     21.140588   18.255011   24.212673 H          1 MOL1         0.0960
      20    C7      19.641469   18.839642   25.670272 C.3        1 MOL1         0.0172
      21    H14     19.263942   19.759615   26.124624 H          1 MOL1         0.0934
      22    H15     18.813738   18.344411   25.155976 H          1 MOL1         0.0934
      23    N1      20.111204   17.925822   26.783574 N.4        1 MOL1        -0.5956
      24    H16     19.356695   17.712337   27.444971 H          1 MOL1         0.3624
      25    H17     20.873298   18.345532   27.325965 H          1 MOL1         0.3624
      26    H18     20.454971   17.029746   26.423186 H          1 MOL1         0.3624
@<TRIPOS>BOND
    1     1     2    1
    2     1     3    1
    3     1     4    1
    4     1     5    1
    5     5     6    1
    6     5     7    1
    7     5     8    1
    8     8     9    1
    9     8    10    1
   10     8    11    1
   11    11    12    1
   12    11    13    1
   13    11    14    1
   14    14    15    1
   15    14    16    1
   16    14    17    1
   17    17    18    1
   18    17    19    1
   19    17    20    1
   20    20    21    1
   21    20    22    1
   22    20    23    1
   23    23    24    1
   24    23    25    1
   25    23    26    1
@<TRIPOS>SUBSTRUCTURE
       1 MOL1            1 RESIDUE      1      MOL     
@<SCITEGIC>MOL_PROPERTY
VM2 Rank
SciTegic.value.IntegerValue
81

@<SCITEGIC>MOL_PROPERTY
Conf_Id
SciTegic.value.IntegerValue
684

@<SCITEGIC>MOL_PROPERTY
Probability
SciTegic.value.DoubleValue
0.17

@<SCITEGIC>MOL_PROPERTY
Sum Probability
SciTegic.value.DoubleValue
97.90

@<SCITEGIC>MOL_PROPERTY
Delta G
SciTegic.value.DoubleValue
2.277

@<SCITEGIC>MOL_PROPERTY
G
SciTegic.value.DoubleValue
50.539

@<SCITEGIC>MOL_PROPERTY
E
SciTegic.value.DoubleValue
17.207

@<SCITEGIC>MOL_PROPERTY
-TS
SciTegic.value.DoubleValue
33.332

@<SCITEGIC>MOL_PROPERTY
U+W
SciTegic.value.DoubleValue
-4.255

@<SCITEGIC>MOL_PROPERTY
U
SciTegic.value.DoubleValue
49.824

@<SCITEGIC>MOL_PROPERTY
W
SciTegic.value.DoubleValue
-54.080

@<SCITEGIC>MOL_PROPERTY
W(PB)
SciTegic.value.DoubleValue
-56.298

@<SCITEGIC>MOL_PROPERTY
W(SA)
SciTegic.value.DoubleValue
2.219

@<SCITEGIC>MOL_PROPERTY
Valence
SciTegic.value.DoubleValue
3.796

@<SCITEGIC>MOL_PROPERTY
Coulomb
SciTegic.value.DoubleValue
45.507

@<SCITEGIC>MOL_PROPERTY
VdW
SciTegic.value.DoubleValue
0.521

@<SCITEGIC>MOL_PROPERTY
VdW6
SciTegic.value.DoubleValue
-9.173

@<SCITEGIC>MOL_PROPERTY
VdW12
SciTegic.value.DoubleValue
9.694

@<SCITEGIC>MOL_PROPERTY
Bond
SciTegic.value.DoubleValue
0.280

@<SCITEGIC>MOL_PROPERTY
Angle
SciTegic.value.DoubleValue
1.536

@<SCITEGIC>MOL_PROPERTY
Pdih
SciTegic.value.DoubleValue
1.980

@<SCITEGIC>MOL_PROPERTY
Idih
SciTegic.value.DoubleValue
0.000

@<SCITEGIC>MOL_PROPERTY
Tether
SciTegic.value.DoubleValue
0.000

@<TRIPOS>MOLECULE
guest-s14_vm2.mol2 : vm2 ligand conformer 82
          26          25           1
SMALL
USER_CHARGES
 
@<TRIPOS>ATOM
       1    C1      18.883915   18.527583   20.378556 C.3        1 MOL1        -0.2400
       2    H1      18.252946   17.692542   20.047807 H          1 MOL1         0.0971
       3    H2      18.253306   19.206187   20.966251 H          1 MOL1         0.0971
       4    H3      19.226743   19.064507   19.484630 H          1 MOL1         0.0971
       5    C2      20.080726   18.007364   21.206288 C.3        1 MOL1        -0.1385
       6    H4      20.617834   17.252319   20.615524 H          1 MOL1         0.0960
       7    H5      19.714262   17.485039   22.099995 H          1 MOL1         0.0960
       8    C3      21.079735   19.121703   21.609033 C.3        1 MOL1        -0.1409
       9    H6      21.924536   18.667105   22.143212 H          1 MOL1         0.0960
      10    H7      21.509579   19.557971   20.696933 H          1 MOL1         0.0960
      11    C4      20.480874   20.266715   22.469744 C.3        1 MOL1        -0.1409
      12    H8      19.757157   20.832384   21.867946 H          1 MOL1         0.0960
      13    H9      21.281601   20.978791   22.712216 H          1 MOL1         0.0960
      14    C5      19.795672   19.815009   23.784999 C.3        1 MOL1        -0.1409
      15    H10     19.400578   20.705442   24.293304 H          1 MOL1         0.0960
      16    H11     18.925672   19.188365   23.551232 H          1 MOL1         0.0960
      17    C6      20.749146   19.067226   24.749768 C.3        1 MOL1        -0.1450
      18    H12     21.646521   19.676993   24.918832 H          1 MOL1         0.0960
      19    H13     21.088451   18.125480   24.300122 H          1 MOL1         0.0960
      20    C7      20.096817   18.769149   26.113295 C.3        1 MOL1         0.0172
      21    H14     20.836938   18.316172   26.778545 H          1 MOL1         0.0934
      22    H15     19.754167   19.701963   26.569169 H          1 MOL1         0.0934
      23    N1      18.914115   17.824251   26.029318 N.4        1 MOL1        -0.5956
      24    H16     18.164374   18.206218   25.444656 H          1 MOL1         0.3624
      25    H17     18.509395   17.638623   26.953463 H          1 MOL1         0.3624
      26    H18     19.178753   16.917652   25.630754 H          1 MOL1         0.3624
@<TRIPOS>BOND
    1     1     2    1
    2     1     3    1
    3     1     4    1
    4     1     5    1
    5     5     6    1
    6     5     7    1
    7     5     8    1
    8     8     9    1
    9     8    10    1
   10     8    11    1
   11    11    12    1
   12    11    13    1
   13    11    14    1
   14    14    15    1
   15    14    16    1
   16    14    17    1
   17    17    18    1
   18    17    19    1
   19    17    20    1
   20    20    21    1
   21    20    22    1
   22    20    23    1
   23    23    24    1
   24    23    25    1
   25    23    26    1
@<TRIPOS>SUBSTRUCTURE
       1 MOL1            1 RESIDUE      1      MOL     
@<SCITEGIC>MOL_PROPERTY
VM2 Rank
SciTegic.value.IntegerValue
82

@<SCITEGIC>MOL_PROPERTY
Conf_Id
SciTegic.value.IntegerValue
282

@<SCITEGIC>MOL_PROPERTY
Probability
SciTegic.value.DoubleValue
0.17

@<SCITEGIC>MOL_PROPERTY
Sum Probability
SciTegic.value.DoubleValue
98.07

@<SCITEGIC>MOL_PROPERTY
Delta G
SciTegic.value.DoubleValue
2.289

@<SCITEGIC>MOL_PROPERTY
G
SciTegic.value.DoubleValue
50.550

@<SCITEGIC>MOL_PROPERTY
E
SciTegic.value.DoubleValue
17.319

@<SCITEGIC>MOL_PROPERTY
-TS
SciTegic.value.DoubleValue
33.231

@<SCITEGIC>MOL_PROPERTY
U+W
SciTegic.value.DoubleValue
-4.142

@<SCITEGIC>MOL_PROPERTY
U
SciTegic.value.DoubleValue
50.091

@<SCITEGIC>MOL_PROPERTY
W
SciTegic.value.DoubleValue
-54.234

@<SCITEGIC>MOL_PROPERTY
W(PB)
SciTegic.value.DoubleValue
-56.461

@<SCITEGIC>MOL_PROPERTY
W(SA)
SciTegic.value.DoubleValue
2.228

@<SCITEGIC>MOL_PROPERTY
Valence
SciTegic.value.DoubleValue
3.653

@<SCITEGIC>MOL_PROPERTY
Coulomb
SciTegic.value.DoubleValue
45.797

@<SCITEGIC>MOL_PROPERTY
VdW
SciTegic.value.DoubleValue
0.641

@<SCITEGIC>MOL_PROPERTY
VdW6
SciTegic.value.DoubleValue
-8.932

@<SCITEGIC>MOL_PROPERTY
VdW12
SciTegic.value.DoubleValue
9.573

@<SCITEGIC>MOL_PROPERTY
Bond
SciTegic.value.DoubleValue
0.273

@<SCITEGIC>MOL_PROPERTY
Angle
SciTegic.value.DoubleValue
1.380

@<SCITEGIC>MOL_PROPERTY
Pdih
SciTegic.value.DoubleValue
2.000

@<SCITEGIC>MOL_PROPERTY
Idih
SciTegic.value.DoubleValue
0.000

@<SCITEGIC>MOL_PROPERTY
Tether
SciTegic.value.DoubleValue
0.000

@<TRIPOS>MOLECULE
guest-s14_vm2.mol2 : vm2 ligand conformer 83
          26          25           1
SMALL
USER_CHARGES
 
@<TRIPOS>ATOM
       1    C1      19.736176   18.756636   19.872237 C.3        1 MOL1        -0.2400
       2    H1      18.753358   19.115670   20.201974 H          1 MOL1         0.0971
       3    H2      20.244785   19.577297   19.349978 H          1 MOL1         0.0971
       4    H3      19.567497   17.950079   19.147096 H          1 MOL1         0.0971
       5    C2      20.581177   18.247486   21.061720 C.3        1 MOL1        -0.1385
       6    H4      21.505207   17.797969   20.672265 H          1 MOL1         0.0960
       7    H5      20.046110   17.438211   21.576166 H          1 MOL1         0.0960
       8    C3      20.960820   19.363532   22.067832 C.3        1 MOL1        -0.1409
       9    H6      21.609399   18.937785   22.844858 H          1 MOL1         0.0960
      10    H7      21.575117   20.112774   21.549887 H          1 MOL1         0.0960
      11    C4      19.759638   20.084694   22.736351 C.3        1 MOL1        -0.1409
      12    H8      19.201597   20.642652   21.972798 H          1 MOL1         0.0960
      13    H9      20.146243   20.847578   23.425260 H          1 MOL1         0.0960
      14    C5      18.774241   19.157665   23.497624 C.3        1 MOL1        -0.1409
      15    H10     17.981050   19.776627   23.939180 H          1 MOL1         0.0960
      16    H11     18.268813   18.493809   22.783708 H          1 MOL1         0.0960
      17    C6      19.420972   18.301970   24.614889 C.3        1 MOL1        -0.1450
      18    H12     20.137423   17.594103   24.179118 H          1 MOL1         0.0960
      19    H13     18.640556   17.695716   25.093557 H          1 MOL1         0.0960
      20    C7      20.122831   19.156755   25.686316 C.3        1 MOL1         0.0172
      21    H14     20.927209   19.736809   25.226528 H          1 MOL1         0.0934
      22    H15     19.405624   19.852932   26.129335 H          1 MOL1         0.0934
      23    N1      20.725145   18.330261   26.804031 N.4        1 MOL1        -0.5956
      24    H16     20.014629   17.779752   27.297222 H          1 MOL1         0.3624
      25    H17     21.187299   18.918348   27.506080 H          1 MOL1         0.3624
      26    H18     21.429340   17.671655   26.455671 H          1 MOL1         0.3624
@<TRIPOS>BOND
    1     1     2    1
    2     1     3    1
    3     1     4    1
    4     1     5    1
    5     5     6    1
    6     5     7    1
    7     5     8    1
    8     8     9    1
    9     8    10    1
   10     8    11    1
   11    11    12    1
   12    11    13    1
   13    11    14    1
   14    14    15    1
   15    14    16    1
   16    14    17    1
   17    17    18    1
   18    17    19    1
   19    17    20    1
   20    20    21    1
   21    20    22    1
   22    20    23    1
   23    23    24    1
   24    23    25    1
   25    23    26    1
@<TRIPOS>SUBSTRUCTURE
       1 MOL1            1 RESIDUE      1      MOL     
@<SCITEGIC>MOL_PROPERTY
VM2 Rank
SciTegic.value.IntegerValue
83

@<SCITEGIC>MOL_PROPERTY
Conf_Id
SciTegic.value.IntegerValue
768

@<SCITEGIC>MOL_PROPERTY
Probability
SciTegic.value.DoubleValue
0.16

@<SCITEGIC>MOL_PROPERTY
Sum Probability
SciTegic.value.DoubleValue
98.23

@<SCITEGIC>MOL_PROPERTY
Delta G
SciTegic.value.DoubleValue
2.314

@<SCITEGIC>MOL_PROPERTY
G
SciTegic.value.DoubleValue
50.575

@<SCITEGIC>MOL_PROPERTY
E
SciTegic.value.DoubleValue
17.243

@<SCITEGIC>MOL_PROPERTY
-TS
SciTegic.value.DoubleValue
33.332

@<SCITEGIC>MOL_PROPERTY
U+W
SciTegic.value.DoubleValue
-4.219

@<SCITEGIC>MOL_PROPERTY
U
SciTegic.value.DoubleValue
49.824

@<SCITEGIC>MOL_PROPERTY
W
SciTegic.value.DoubleValue
-54.043

@<SCITEGIC>MOL_PROPERTY
W(PB)
SciTegic.value.DoubleValue
-56.275

@<SCITEGIC>MOL_PROPERTY
W(SA)
SciTegic.value.DoubleValue
2.232

@<SCITEGIC>MOL_PROPERTY
Valence
SciTegic.value.DoubleValue
3.797

@<SCITEGIC>MOL_PROPERTY
Coulomb
SciTegic.value.DoubleValue
45.507

@<SCITEGIC>MOL_PROPERTY
VdW
SciTegic.value.DoubleValue
0.521

@<SCITEGIC>MOL_PROPERTY
VdW6
SciTegic.value.DoubleValue
-9.173

@<SCITEGIC>MOL_PROPERTY
VdW12
SciTegic.value.DoubleValue
9.694

@<SCITEGIC>MOL_PROPERTY
Bond
SciTegic.value.DoubleValue
0.280

@<SCITEGIC>MOL_PROPERTY
Angle
SciTegic.value.DoubleValue
1.536

@<SCITEGIC>MOL_PROPERTY
Pdih
SciTegic.value.DoubleValue
1.980

@<SCITEGIC>MOL_PROPERTY
Idih
SciTegic.value.DoubleValue
0.000

@<SCITEGIC>MOL_PROPERTY
Tether
SciTegic.value.DoubleValue
0.000

@<TRIPOS>MOLECULE
guest-s14_vm2.mol2 : vm2 ligand conformer 84
          26          25           1
SMALL
USER_CHARGES
 
@<TRIPOS>ATOM
       1    C1      18.460815   18.761909   20.923716 C.3        1 MOL1        -0.2400
       2    H1      18.161113   18.744559   21.978454 H          1 MOL1         0.0971
       3    H2      18.223009   19.752445   20.514732 H          1 MOL1         0.0971
       4    H3      17.846361   18.023109   20.393154 H          1 MOL1         0.0971
       5    C2      19.962530   18.438150   20.755107 C.3        1 MOL1        -0.1385
       6    H4      20.187316   18.354593   19.682652 H          1 MOL1         0.0960
       7    H5      20.180080   17.451099   21.184432 H          1 MOL1         0.0960
       8    C3      20.897268   19.509752   21.372012 C.3        1 MOL1        -0.1409
       9    H6      21.940158   19.226425   21.173931 H          1 MOL1         0.0960
      10    H7      20.740120   20.462096   20.847156 H          1 MOL1         0.0960
      11    C4      20.719164   19.745391   22.893998 C.3        1 MOL1        -0.1409
      12    H8      19.711413   20.132443   23.090997 H          1 MOL1         0.0960
      13    H9      21.413501   20.538362   23.204091 H          1 MOL1         0.0960
      14    C5      20.986148   18.480735   23.748491 C.3        1 MOL1        -0.1409
      15    H10     20.249618   17.702273   23.512703 H          1 MOL1         0.0960
      16    H11     21.967553   18.066058   23.480282 H          1 MOL1         0.0960
      17    C6      20.968919   18.764036   25.271413 C.3        1 MOL1        -0.1450
      18    H12     21.765655   19.479080   25.515855 H          1 MOL1         0.0960
      19    H13     21.208800   17.840985   25.815667 H          1 MOL1         0.0960
      20    C7      19.627431   19.321578   25.788919 C.3        1 MOL1         0.0172
      21    H14     19.708487   19.526718   26.859823 H          1 MOL1         0.0934
      22    H15     19.396355   20.260981   25.280224 H          1 MOL1         0.0934
      23    N1      18.458726   18.377449   25.587345 N.4        1 MOL1        -0.5956
      24    H16     17.582550   18.774424   25.943725 H          1 MOL1         0.3624
      25    H17     18.602960   17.486046   26.072768 H          1 MOL1         0.3624
      26    H18     18.313497   18.163691   24.596049 H          1 MOL1         0.3624
@<TRIPOS>BOND
    1     1     2    1
    2     1     3    1
    3     1     4    1
    4     1     5    1
    5     5     6    1
    6     5     7    1
    7     5     8    1
    8     8     9    1
    9     8    10    1
   10     8    11    1
   11    11    12    1
   12    11    13    1
   13    11    14    1
   14    14    15    1
   15    14    16    1
   16    14    17    1
   17    17    18    1
   18    17    19    1
   19    17    20    1
   20    20    21    1
   21    20    22    1
   22    20    23    1
   23    23    24    1
   24    23    25    1
   25    23    26    1
@<TRIPOS>SUBSTRUCTURE
       1 MOL1            1 RESIDUE      1      MOL     
@<SCITEGIC>MOL_PROPERTY
VM2 Rank
SciTegic.value.IntegerValue
84

@<SCITEGIC>MOL_PROPERTY
Conf_Id
SciTegic.value.IntegerValue
1117

@<SCITEGIC>MOL_PROPERTY
Probability
SciTegic.value.DoubleValue
0.11

@<SCITEGIC>MOL_PROPERTY
Sum Probability
SciTegic.value.DoubleValue
98.34

@<SCITEGIC>MOL_PROPERTY
Delta G
SciTegic.value.DoubleValue
2.550

@<SCITEGIC>MOL_PROPERTY
G
SciTegic.value.DoubleValue
50.812

@<SCITEGIC>MOL_PROPERTY
E
SciTegic.value.DoubleValue
17.758

@<SCITEGIC>MOL_PROPERTY
-TS
SciTegic.value.DoubleValue
33.053

@<SCITEGIC>MOL_PROPERTY
U+W
SciTegic.value.DoubleValue
-3.703

@<SCITEGIC>MOL_PROPERTY
U
SciTegic.value.DoubleValue
50.414

@<SCITEGIC>MOL_PROPERTY
W
SciTegic.value.DoubleValue
-54.117

@<SCITEGIC>MOL_PROPERTY
W(PB)
SciTegic.value.DoubleValue
-56.317

@<SCITEGIC>MOL_PROPERTY
W(SA)
SciTegic.value.DoubleValue
2.199

@<SCITEGIC>MOL_PROPERTY
Valence
SciTegic.value.DoubleValue
3.472

@<SCITEGIC>MOL_PROPERTY
Coulomb
SciTegic.value.DoubleValue
46.374

@<SCITEGIC>MOL_PROPERTY
VdW
SciTegic.value.DoubleValue
0.568

@<SCITEGIC>MOL_PROPERTY
VdW6
SciTegic.value.DoubleValue
-8.861

@<SCITEGIC>MOL_PROPERTY
VdW12
SciTegic.value.DoubleValue
9.429

@<SCITEGIC>MOL_PROPERTY
Bond
SciTegic.value.DoubleValue
0.255

@<SCITEGIC>MOL_PROPERTY
Angle
SciTegic.value.DoubleValue
1.219

@<SCITEGIC>MOL_PROPERTY
Pdih
SciTegic.value.DoubleValue
1.997

@<SCITEGIC>MOL_PROPERTY
Idih
SciTegic.value.DoubleValue
0.000

@<SCITEGIC>MOL_PROPERTY
Tether
SciTegic.value.DoubleValue
0.000

@<TRIPOS>MOLECULE
guest-s14_vm2.mol2 : vm2 ligand conformer 85
          26          25           1
SMALL
USER_CHARGES
 
@<TRIPOS>ATOM
       1    C1      20.877557   20.356911   21.004579 C.3        1 MOL1        -0.2400
       2    H1      20.079733   20.977829   20.576891 H          1 MOL1         0.0971
       3    H2      20.961909   20.593022   22.072161 H          1 MOL1         0.0971
       4    H3      21.821918   20.646988   20.526131 H          1 MOL1         0.0971
       5    C2      20.594148   18.854930   20.776262 C.3        1 MOL1        -0.1385
       6    H4      21.395723   18.253362   21.225165 H          1 MOL1         0.0960
       7    H5      20.632777   18.648464   19.697582 H          1 MOL1         0.0960
       8    C3      19.214388   18.398950   21.315686 C.3        1 MOL1        -0.1409
       9    H6      18.425483   18.934274   20.769622 H          1 MOL1         0.0960
      10    H7      19.075090   17.335335   21.078100 H          1 MOL1         0.0960
      11    C4      18.996743   18.608639   22.836328 C.3        1 MOL1        -0.1409
      12    H8      17.981496   18.273368   23.089171 H          1 MOL1         0.0960
      13    H9      19.027092   19.680825   23.068005 H          1 MOL1         0.0960
      14    C5      20.014085   17.839279   23.716042 C.3        1 MOL1        -0.1409
      15    H10     20.022656   16.782582   23.415432 H          1 MOL1         0.0960
      16    H11     21.029100   18.216647   23.538814 H          1 MOL1         0.0960
      17    C6      19.689610   17.920063   25.228669 C.3        1 MOL1        -0.1450
      18    H12     20.418099   17.319476   25.789366 H          1 MOL1         0.0960
      19    H13     18.708772   17.462285   25.413670 H          1 MOL1         0.0960
      20    C7      19.679591   19.356188   25.790538 C.3        1 MOL1         0.0172
      21    H14     18.931094   19.954092   25.264317 H          1 MOL1         0.0934
      22    H15     19.409262   19.329763   26.849646 H          1 MOL1         0.0934
      23    N1      21.014877   20.064039   25.672897 N.4        1 MOL1        -0.5956
      24    H16     21.314612   20.143548   24.696531 H          1 MOL1         0.3624
      25    H17     21.754428   19.565552   26.178480 H          1 MOL1         0.3624
      26    H18     20.977317   21.014408   26.057172 H          1 MOL1         0.3624
@<TRIPOS>BOND
    1     1     2    1
    2     1     3    1
    3     1     4    1
    4     1     5    1
    5     5     6    1
    6     5     7    1
    7     5     8    1
    8     8     9    1
    9     8    10    1
   10     8    11    1
   11    11    12    1
   12    11    13    1
   13    11    14    1
   14    14    15    1
   15    14    16    1
   16    14    17    1
   17    17    18    1
   18    17    19    1
   19    17    20    1
   20    20    21    1
   21    20    22    1
   22    20    23    1
   23    23    24    1
   24    23    25    1
   25    23    26    1
@<TRIPOS>SUBSTRUCTURE
       1 MOL1            1 RESIDUE      1      MOL     
@<SCITEGIC>MOL_PROPERTY
VM2 Rank
SciTegic.value.IntegerValue
85

@<SCITEGIC>MOL_PROPERTY
Conf_Id
SciTegic.value.IntegerValue
235

@<SCITEGIC>MOL_PROPERTY
Probability
SciTegic.value.DoubleValue
0.09

@<SCITEGIC>MOL_PROPERTY
Sum Probability
SciTegic.value.DoubleValue
98.43

@<SCITEGIC>MOL_PROPERTY
Delta G
SciTegic.value.DoubleValue
2.628

@<SCITEGIC>MOL_PROPERTY
G
SciTegic.value.DoubleValue
50.889

@<SCITEGIC>MOL_PROPERTY
E
SciTegic.value.DoubleValue
17.836

@<SCITEGIC>MOL_PROPERTY
-TS
SciTegic.value.DoubleValue
33.053

@<SCITEGIC>MOL_PROPERTY
U+W
SciTegic.value.DoubleValue
-3.626

@<SCITEGIC>MOL_PROPERTY
U
SciTegic.value.DoubleValue
50.413

@<SCITEGIC>MOL_PROPERTY
W
SciTegic.value.DoubleValue
-54.040

@<SCITEGIC>MOL_PROPERTY
W(PB)
SciTegic.value.DoubleValue
-56.257

@<SCITEGIC>MOL_PROPERTY
W(SA)
SciTegic.value.DoubleValue
2.217

@<SCITEGIC>MOL_PROPERTY
Valence
SciTegic.value.DoubleValue
3.472

@<SCITEGIC>MOL_PROPERTY
Coulomb
SciTegic.value.DoubleValue
46.374

@<SCITEGIC>MOL_PROPERTY
VdW
SciTegic.value.DoubleValue
0.568

@<SCITEGIC>MOL_PROPERTY
VdW6
SciTegic.value.DoubleValue
-8.861

@<SCITEGIC>MOL_PROPERTY
VdW12
SciTegic.value.DoubleValue
9.429

@<SCITEGIC>MOL_PROPERTY
Bond
SciTegic.value.DoubleValue
0.255

@<SCITEGIC>MOL_PROPERTY
Angle
SciTegic.value.DoubleValue
1.219

@<SCITEGIC>MOL_PROPERTY
Pdih
SciTegic.value.DoubleValue
1.997

@<SCITEGIC>MOL_PROPERTY
Idih
SciTegic.value.DoubleValue
0.000

@<SCITEGIC>MOL_PROPERTY
Tether
SciTegic.value.DoubleValue
0.000

@<TRIPOS>MOLECULE
guest-s14_vm2.mol2 : vm2 ligand conformer 86
          26          25           1
SMALL
USER_CHARGES
 
@<TRIPOS>ATOM
       1    C1      20.591167   19.203292   19.955929 C.3        1 MOL1        -0.2400
       2    H1      19.947391   19.961420   19.491485 H          1 MOL1         0.0971
       3    H2      21.402423   19.718446   20.485119 H          1 MOL1         0.0971
       4    H3      21.045216   18.609629   19.152053 H          1 MOL1         0.0971
       5    C2      19.781046   18.295198   20.908391 C.3        1 MOL1        -0.1385
       6    H4      20.448157   17.556049   21.371497 H          1 MOL1         0.0960
       7    H5      19.057029   17.718359   20.316256 H          1 MOL1         0.0960
       8    C3      19.011390   19.081125   22.000157 C.3        1 MOL1        -0.1409
       9    H6      18.283330   19.743486   21.512119 H          1 MOL1         0.0960
      10    H7      18.415430   18.375468   22.593872 H          1 MOL1         0.0960
      11    C4      19.897757   19.933035   22.947997 C.3        1 MOL1        -0.1409
      12    H8      19.248622   20.441779   23.672945 H          1 MOL1         0.0960
      13    H9      20.373701   20.738046   22.372559 H          1 MOL1         0.0960
      14    C5      20.997517   19.143569   23.707606 C.3        1 MOL1        -0.1409
      15    H10     21.731156   18.755026   22.988914 H          1 MOL1         0.0960
      16    H11     21.556493   19.842033   24.344479 H          1 MOL1         0.0960
      17    C6      20.471806   17.969973   24.574994 C.3        1 MOL1        -0.1450
      18    H12     21.316300   17.497741   25.094057 H          1 MOL1         0.0960
      19    H13     20.045977   17.193781   23.926524 H          1 MOL1         0.0960
      20    C7      19.410729   18.386822   25.612988 C.3        1 MOL1         0.0172
      21    H14     18.550933   18.829831   25.103746 H          1 MOL1         0.0934
      22    H15     19.066136   17.502593   26.155969 H          1 MOL1         0.0934
      23    N1      19.919587   19.385985   26.632937 N.4        1 MOL1        -0.5956
      24    H16     19.193999   19.641906   27.311226 H          1 MOL1         0.3624
      25    H17     20.235059   20.252623   26.186577 H          1 MOL1         0.3624
      26    H18     20.711683   19.014064   27.166836 H          1 MOL1         0.3624
@<TRIPOS>BOND
    1     1     2    1
    2     1     3    1
    3     1     4    1
    4     1     5    1
    5     5     6    1
    6     5     7    1
    7     5     8    1
    8     8     9    1
    9     8    10    1
   10     8    11    1
   11    11    12    1
   12    11    13    1
   13    11    14    1
   14    14    15    1
   15    14    16    1
   16    14    17    1
   17    17    18    1
   18    17    19    1
   19    17    20    1
   20    20    21    1
   21    20    22    1
   22    20    23    1
   23    23    24    1
   24    23    25    1
   25    23    26    1
@<TRIPOS>SUBSTRUCTURE
       1 MOL1            1 RESIDUE      1      MOL     
@<SCITEGIC>MOL_PROPERTY
VM2 Rank
SciTegic.value.IntegerValue
86

@<SCITEGIC>MOL_PROPERTY
Conf_Id
SciTegic.value.IntegerValue
1050

@<SCITEGIC>MOL_PROPERTY
Probability
SciTegic.value.DoubleValue
0.09

@<SCITEGIC>MOL_PROPERTY
Sum Probability
SciTegic.value.DoubleValue
98.52

@<SCITEGIC>MOL_PROPERTY
Delta G
SciTegic.value.DoubleValue
2.671

@<SCITEGIC>MOL_PROPERTY
G
SciTegic.value.DoubleValue
50.932

@<SCITEGIC>MOL_PROPERTY
E
SciTegic.value.DoubleValue
17.405

@<SCITEGIC>MOL_PROPERTY
-TS
SciTegic.value.DoubleValue
33.527

@<SCITEGIC>MOL_PROPERTY
U+W
SciTegic.value.DoubleValue
-4.057

@<SCITEGIC>MOL_PROPERTY
U
SciTegic.value.DoubleValue
50.052

@<SCITEGIC>MOL_PROPERTY
W
SciTegic.value.DoubleValue
-54.109

@<SCITEGIC>MOL_PROPERTY
W(PB)
SciTegic.value.DoubleValue
-56.310

@<SCITEGIC>MOL_PROPERTY
W(SA)
SciTegic.value.DoubleValue
2.201

@<SCITEGIC>MOL_PROPERTY
Valence
SciTegic.value.DoubleValue
3.896

@<SCITEGIC>MOL_PROPERTY
Coulomb
SciTegic.value.DoubleValue
45.624

@<SCITEGIC>MOL_PROPERTY
VdW
SciTegic.value.DoubleValue
0.532

@<SCITEGIC>MOL_PROPERTY
VdW6
SciTegic.value.DoubleValue
-9.866

@<SCITEGIC>MOL_PROPERTY
VdW12
SciTegic.value.DoubleValue
10.399

@<SCITEGIC>MOL_PROPERTY
Bond
SciTegic.value.DoubleValue
0.306

@<SCITEGIC>MOL_PROPERTY
Angle
SciTegic.value.DoubleValue
1.609

@<SCITEGIC>MOL_PROPERTY
Pdih
SciTegic.value.DoubleValue
1.981

@<SCITEGIC>MOL_PROPERTY
Idih
SciTegic.value.DoubleValue
0.000

@<SCITEGIC>MOL_PROPERTY
Tether
SciTegic.value.DoubleValue
0.000

@<TRIPOS>MOLECULE
guest-s14_vm2.mol2 : vm2 ligand conformer 87
          26          25           1
SMALL
USER_CHARGES
 
@<TRIPOS>ATOM
       1    C1      20.543168   19.015887   19.213592 C.3        1 MOL1        -0.2400
       2    H1      21.299962   18.556169   18.564776 H          1 MOL1         0.0971
       3    H2      19.554544   18.708529   18.848356 H          1 MOL1         0.0971
       4    H3      20.623902   20.105444   19.105932 H          1 MOL1         0.0971
       5    C2      20.750361   18.586616   20.681540 C.3        1 MOL1        -0.1385
       6    H4      21.759092   18.877134   21.007019 H          1 MOL1         0.0960
       7    H5      20.697615   17.491071   20.751747 H          1 MOL1         0.0960
       8    C3      19.697011   19.220616   21.616933 C.3        1 MOL1        -0.1409
       9    H6      19.752500   20.315551   21.542431 H          1 MOL1         0.0960
      10    H7      18.690874   18.930071   21.284195 H          1 MOL1         0.0960
      11    C4      19.900064   18.791889   23.087770 C.3        1 MOL1        -0.1409
      12    H8      20.909418   19.083881   23.402849 H          1 MOL1         0.0960
      13    H9      19.835541   17.697438   23.161390 H          1 MOL1         0.0960
      14    C5      18.851499   19.439309   24.023112 C.3        1 MOL1        -0.1409
      15    H10     18.992560   20.529021   24.033068 H          1 MOL1         0.0960
      16    H11     17.848948   19.264439   23.608689 H          1 MOL1         0.0960
      17    C6      18.871263   18.903439   25.477577 C.3        1 MOL1        -0.1450
      18    H12     18.669336   17.824118   25.490349 H          1 MOL1         0.0960
      19    H13     18.039141   19.371872   26.019803 H          1 MOL1         0.0960
      20    C7      20.168665   19.207728   26.255071 C.3        1 MOL1         0.0172
      21    H14     20.515018   20.217460   26.018898 H          1 MOL1         0.0934
      22    H15     19.959454   19.163312   27.327340 H          1 MOL1         0.0934
      23    N1      21.298969   18.233516   25.985406 N.4        1 MOL1        -0.5956
      24    H16     21.043193   17.275059   26.244329 H          1 MOL1         0.3624
      25    H17     22.141795   18.472062   26.519420 H          1 MOL1         0.3624
      26    H18     21.561452   18.219851   24.995997 H          1 MOL1         0.3624
@<TRIPOS>BOND
    1     1     2    1
    2     1     3    1
    3     1     4    1
    4     1     5    1
    5     5     6    1
    6     5     7    1
    7     5     8    1
    8     8     9    1
    9     8    10    1
   10     8    11    1
   11    11    12    1
   12    11    13    1
   13    11    14    1
   14    14    15    1
   15    14    16    1
   16    14    17    1
   17    17    18    1
   18    17    19    1
   19    17    20    1
   20    20    21    1
   21    20    22    1
   22    20    23    1
   23    23    24    1
   24    23    25    1
   25    23    26    1
@<TRIPOS>SUBSTRUCTURE
       1 MOL1            1 RESIDUE      1      MOL     
@<SCITEGIC>MOL_PROPERTY
VM2 Rank
SciTegic.value.IntegerValue
87

@<SCITEGIC>MOL_PROPERTY
Conf_Id
SciTegic.value.IntegerValue
859

@<SCITEGIC>MOL_PROPERTY
Probability
SciTegic.value.DoubleValue
0.07

@<SCITEGIC>MOL_PROPERTY
Sum Probability
SciTegic.value.DoubleValue
98.59

@<SCITEGIC>MOL_PROPERTY
Delta G
SciTegic.value.DoubleValue
2.763

@<SCITEGIC>MOL_PROPERTY
G
SciTegic.value.DoubleValue
51.024

@<SCITEGIC>MOL_PROPERTY
E
SciTegic.value.DoubleValue
18.524

@<SCITEGIC>MOL_PROPERTY
-TS
SciTegic.value.DoubleValue
32.500

@<SCITEGIC>MOL_PROPERTY
U+W
SciTegic.value.DoubleValue
-2.937

@<SCITEGIC>MOL_PROPERTY
U
SciTegic.value.DoubleValue
50.881

@<SCITEGIC>MOL_PROPERTY
W
SciTegic.value.DoubleValue
-53.819

@<SCITEGIC>MOL_PROPERTY
W(PB)
SciTegic.value.DoubleValue
-56.136

@<SCITEGIC>MOL_PROPERTY
W(SA)
SciTegic.value.DoubleValue
2.317

@<SCITEGIC>MOL_PROPERTY
Valence
SciTegic.value.DoubleValue
3.754

@<SCITEGIC>MOL_PROPERTY
Coulomb
SciTegic.value.DoubleValue
46.575

@<SCITEGIC>MOL_PROPERTY
VdW
SciTegic.value.DoubleValue
0.553

@<SCITEGIC>MOL_PROPERTY
VdW6
SciTegic.value.DoubleValue
-7.276

@<SCITEGIC>MOL_PROPERTY
VdW12
SciTegic.value.DoubleValue
7.829

@<SCITEGIC>MOL_PROPERTY
Bond
SciTegic.value.DoubleValue
0.187

@<SCITEGIC>MOL_PROPERTY
Angle
SciTegic.value.DoubleValue
0.957

@<SCITEGIC>MOL_PROPERTY
Pdih
SciTegic.value.DoubleValue
2.610

@<SCITEGIC>MOL_PROPERTY
Idih
SciTegic.value.DoubleValue
0.000

@<SCITEGIC>MOL_PROPERTY
Tether
SciTegic.value.DoubleValue
0.000

@<TRIPOS>MOLECULE
guest-s14_vm2.mol2 : vm2 ligand conformer 88
          26          25           1
SMALL
USER_CHARGES
 
@<TRIPOS>ATOM
       1    C1      19.906915   18.596392   19.192334 C.3        1 MOL1        -0.2400
       2    H1      18.879670   18.955637   19.047588 H          1 MOL1         0.0971
       3    H2      20.594879   19.394102   18.883129 H          1 MOL1         0.0971
       4    H3      20.061752   17.739863   18.523436 H          1 MOL1         0.0971
       5    C2      20.151235   18.191680   20.661550 C.3        1 MOL1        -0.1385
       6    H4      21.174715   17.805501   20.767773 H          1 MOL1         0.0960
       7    H5      19.472672   17.370084   20.930640 H          1 MOL1         0.0960
       8    C3      19.939625   19.380534   21.625039 C.3        1 MOL1        -0.1409
       9    H6      20.617529   20.199960   21.348583 H          1 MOL1         0.0960
      10    H7      18.915825   19.764085   21.514423 H          1 MOL1         0.0960
      11    C4      20.184948   18.979746   23.097314 C.3        1 MOL1        -0.1409
      12    H8      21.211901   18.604724   23.207459 H          1 MOL1         0.0960
      13    H9      19.505280   18.158472   23.355952 H          1 MOL1         0.0960
      14    C5      19.959119   20.169511   24.060107 C.3        1 MOL1        -0.1409
      15    H10     20.533142   21.033837   23.698342 H          1 MOL1         0.0960
      16    H11     18.902517   20.469771   24.030023 H          1 MOL1         0.0960
      17    C6      20.375710   19.895283   25.527851 C.3        1 MOL1        -0.1450
      18    H12     20.247273   20.827647   26.093596 H          1 MOL1         0.0960
      19    H13     21.445679   19.654491   25.583168 H          1 MOL1         0.0960
      20    C7      19.550175   18.799985   26.234357 C.3        1 MOL1         0.0172
      21    H14     19.623176   18.941701   27.316065 H          1 MOL1         0.0934
      22    H15     18.497774   18.887506   25.951355 H          1 MOL1         0.0934
      23    N1      20.013273   17.385869   25.942448 N.4        1 MOL1        -0.5956
      24    H16     19.968815   17.169778   24.942776 H          1 MOL1         0.3624
      25    H17     19.438100   16.689569   26.429040 H          1 MOL1         0.3624
      26    H18     20.981929   17.234691   26.242371 H          1 MOL1         0.3624
@<TRIPOS>BOND
    1     1     2    1
    2     1     3    1
    3     1     4    1
    4     1     5    1
    5     5     6    1
    6     5     7    1
    7     5     8    1
    8     8     9    1
    9     8    10    1
   10     8    11    1
   11    11    12    1
   12    11    13    1
   13    11    14    1
   14    14    15    1
   15    14    16    1
   16    14    17    1
   17    17    18    1
   18    17    19    1
   19    17    20    1
   20    20    21    1
   21    20    22    1
   22    20    23    1
   23    23    24    1
   24    23    25    1
   25    23    26    1
@<TRIPOS>SUBSTRUCTURE
       1 MOL1            1 RESIDUE      1      MOL     
@<SCITEGIC>MOL_PROPERTY
VM2 Rank
SciTegic.value.IntegerValue
88

@<SCITEGIC>MOL_PROPERTY
Conf_Id
SciTegic.value.IntegerValue
1090

@<SCITEGIC>MOL_PROPERTY
Probability
SciTegic.value.DoubleValue
0.07

@<SCITEGIC>MOL_PROPERTY
Sum Probability
SciTegic.value.DoubleValue
98.67

@<SCITEGIC>MOL_PROPERTY
Delta G
SciTegic.value.DoubleValue
2.775

@<SCITEGIC>MOL_PROPERTY
G
SciTegic.value.DoubleValue
51.036

@<SCITEGIC>MOL_PROPERTY
E
SciTegic.value.DoubleValue
18.536

@<SCITEGIC>MOL_PROPERTY
-TS
SciTegic.value.DoubleValue
32.500

@<SCITEGIC>MOL_PROPERTY
U+W
SciTegic.value.DoubleValue
-2.926

@<SCITEGIC>MOL_PROPERTY
U
SciTegic.value.DoubleValue
50.881

@<SCITEGIC>MOL_PROPERTY
W
SciTegic.value.DoubleValue
-53.807

@<SCITEGIC>MOL_PROPERTY
W(PB)
SciTegic.value.DoubleValue
-56.131

@<SCITEGIC>MOL_PROPERTY
W(SA)
SciTegic.value.DoubleValue
2.324

@<SCITEGIC>MOL_PROPERTY
Valence
SciTegic.value.DoubleValue
3.754

@<SCITEGIC>MOL_PROPERTY
Coulomb
SciTegic.value.DoubleValue
46.574

@<SCITEGIC>MOL_PROPERTY
VdW
SciTegic.value.DoubleValue
0.553

@<SCITEGIC>MOL_PROPERTY
VdW6
SciTegic.value.DoubleValue
-7.276

@<SCITEGIC>MOL_PROPERTY
VdW12
SciTegic.value.DoubleValue
7.829

@<SCITEGIC>MOL_PROPERTY
Bond
SciTegic.value.DoubleValue
0.187

@<SCITEGIC>MOL_PROPERTY
Angle
SciTegic.value.DoubleValue
0.957

@<SCITEGIC>MOL_PROPERTY
Pdih
SciTegic.value.DoubleValue
2.610

@<SCITEGIC>MOL_PROPERTY
Idih
SciTegic.value.DoubleValue
0.000

@<SCITEGIC>MOL_PROPERTY
Tether
SciTegic.value.DoubleValue
0.000

@<TRIPOS>MOLECULE
guest-s14_vm2.mol2 : vm2 ligand conformer 89
          26          25           1
SMALL
USER_CHARGES
 
@<TRIPOS>ATOM
       1    C1      20.584936   20.311191   19.892290 C.3        1 MOL1        -0.2400
       2    H1      19.572148   20.628538   19.611596 H          1 MOL1         0.0971
       3    H2      21.033045   21.102343   20.507518 H          1 MOL1         0.0971
       4    H3      21.177553   20.223379   18.972434 H          1 MOL1         0.0971
       5    C2      20.554917   18.967680   20.651437 C.3        1 MOL1        -0.1385
       6    H4      21.583027   18.660449   20.889181 H          1 MOL1         0.0960
       7    H5      20.134500   18.189774   19.998728 H          1 MOL1         0.0960
       8    C3      19.725791   19.063234   21.951338 C.3        1 MOL1        -0.1409
       9    H6      20.145368   19.852568   22.585220 H          1 MOL1         0.0960
      10    H7      18.699674   19.369826   21.705701 H          1 MOL1         0.0960
      11    C4      19.691775   17.713475   22.709928 C.3        1 MOL1        -0.1409
      12    H8      20.712386   17.377245   22.939204 H          1 MOL1         0.0960
      13    H9      19.267158   16.955731   22.036810 H          1 MOL1         0.0960
      14    C5      18.838335   17.743972   24.004814 C.3        1 MOL1        -0.1409
      15    H10     17.976324   18.413310   23.877213 H          1 MOL1         0.0960
      16    H11     18.415527   16.741345   24.158047 H          1 MOL1         0.0960
      17    C6      19.621746   18.119836   25.287829 C.3        1 MOL1        -0.1450
      18    H12     20.434311   17.398416   25.446524 H          1 MOL1         0.0960
      19    H13     18.947873   18.022589   26.149455 H          1 MOL1         0.0960
      20    C7      20.200795   19.545353   25.268616 C.3        1 MOL1         0.0172
      21    H14     20.951358   19.626204   24.478640 H          1 MOL1         0.0934
      22    H15     19.403015   20.265073   25.066369 H          1 MOL1         0.0934
      23    N1      20.862705   19.934259   26.574748 N.4        1 MOL1        -0.5956
      24    H16     21.244462   20.885782   26.540208 H          1 MOL1         0.3624
      25    H17     21.640390   19.308932   26.810023 H          1 MOL1         0.3624
      26    H18     20.204288   19.905472   27.360135 H          1 MOL1         0.3624
@<TRIPOS>BOND
    1     1     2    1
    2     1     3    1
    3     1     4    1
    4     1     5    1
    5     5     6    1
    6     5     7    1
    7     5     8    1
    8     8     9    1
    9     8    10    1
   10     8    11    1
   11    11    12    1
   12    11    13    1
   13    11    14    1
   14    14    15    1
   15    14    16    1
   16    14    17    1
   17    17    18    1
   18    17    19    1
   19    17    20    1
   20    20    21    1
   21    20    22    1
   22    20    23    1
   23    23    24    1
   24    23    25    1
   25    23    26    1
@<TRIPOS>SUBSTRUCTURE
       1 MOL1            1 RESIDUE      1      MOL     
@<SCITEGIC>MOL_PROPERTY
VM2 Rank
SciTegic.value.IntegerValue
89

@<SCITEGIC>MOL_PROPERTY
Conf_Id
SciTegic.value.IntegerValue
1364

@<SCITEGIC>MOL_PROPERTY
Probability
SciTegic.value.DoubleValue
0.07

@<SCITEGIC>MOL_PROPERTY
Sum Probability
SciTegic.value.DoubleValue
98.74

@<SCITEGIC>MOL_PROPERTY
Delta G
SciTegic.value.DoubleValue
2.781

@<SCITEGIC>MOL_PROPERTY
G
SciTegic.value.DoubleValue
51.042

@<SCITEGIC>MOL_PROPERTY
E
SciTegic.value.DoubleValue
18.554

@<SCITEGIC>MOL_PROPERTY
-TS
SciTegic.value.DoubleValue
32.488

@<SCITEGIC>MOL_PROPERTY
U+W
SciTegic.value.DoubleValue
-2.908

@<SCITEGIC>MOL_PROPERTY
U
SciTegic.value.DoubleValue
50.868

@<SCITEGIC>MOL_PROPERTY
W
SciTegic.value.DoubleValue
-53.776

@<SCITEGIC>MOL_PROPERTY
W(PB)
SciTegic.value.DoubleValue
-56.099

@<SCITEGIC>MOL_PROPERTY
W(SA)
SciTegic.value.DoubleValue
2.324

@<SCITEGIC>MOL_PROPERTY
Valence
SciTegic.value.DoubleValue
4.696

@<SCITEGIC>MOL_PROPERTY
Coulomb
SciTegic.value.DoubleValue
45.536

@<SCITEGIC>MOL_PROPERTY
VdW
SciTegic.value.DoubleValue
0.636

@<SCITEGIC>MOL_PROPERTY
VdW6
SciTegic.value.DoubleValue
-7.287

@<SCITEGIC>MOL_PROPERTY
VdW12
SciTegic.value.DoubleValue
7.923

@<SCITEGIC>MOL_PROPERTY
Bond
SciTegic.value.DoubleValue
0.211

@<SCITEGIC>MOL_PROPERTY
Angle
SciTegic.value.DoubleValue
1.115

@<SCITEGIC>MOL_PROPERTY
Pdih
SciTegic.value.DoubleValue
3.370

@<SCITEGIC>MOL_PROPERTY
Idih
SciTegic.value.DoubleValue
0.000

@<SCITEGIC>MOL_PROPERTY
Tether
SciTegic.value.DoubleValue
0.000

@<TRIPOS>MOLECULE
guest-s14_vm2.mol2 : vm2 ligand conformer 90
          26          25           1
SMALL
USER_CHARGES
 
@<TRIPOS>ATOM
       1    C1      18.669295   19.047488   19.828274 C.3        1 MOL1        -0.2400
       2    H1      18.560262   18.496861   18.884895 H          1 MOL1         0.0971
       3    H2      17.738075   18.928488   20.397393 H          1 MOL1         0.0971
       4    H3      18.788168   20.111532   19.585546 H          1 MOL1         0.0971
       5    C2      19.879964   18.522467   20.628812 C.3        1 MOL1        -0.1385
       6    H4      20.789904   18.622429   20.020590 H          1 MOL1         0.0960
       7    H5      19.747800   17.449653   20.827611 H          1 MOL1         0.0960
       8    C3      20.056952   19.281661   21.962461 C.3        1 MOL1        -0.1409
       9    H6      20.189239   20.352647   21.755724 H          1 MOL1         0.0960
      10    H7      19.137729   19.187499   22.551576 H          1 MOL1         0.0960
      11    C4      21.274983   18.757894   22.762796 C.3        1 MOL1        -0.1409
      12    H8      22.168964   18.870203   22.133709 H          1 MOL1         0.0960
      13    H9      21.172764   17.680826   22.954467 H          1 MOL1         0.0960
      14    C5      21.521643   19.514052   24.094488 C.3        1 MOL1        -0.1409
      15    H10     22.601450   19.502658   24.297942 H          1 MOL1         0.0960
      16    H11     21.251055   20.573543   23.986703 H          1 MOL1         0.0960
      17    C6      20.809206   18.903078   25.327482 C.3        1 MOL1        -0.1450
      18    H12     21.123018   19.457199   26.222150 H          1 MOL1         0.0960
      19    H13     21.145498   17.867488   25.470146 H          1 MOL1         0.0960
      20    C7      19.273378   18.933636   25.237671 C.3        1 MOL1         0.0172
      21    H14     18.934880   19.956320   25.050877 H          1 MOL1         0.0934
      22    H15     18.941179   18.300396   24.411481 H          1 MOL1         0.0934
      23    N1      18.595580   18.438723   26.499018 N.4        1 MOL1        -0.5956
      24    H16     18.843971   19.007999   27.314740 H          1 MOL1         0.3624
      25    H17     18.853749   17.470694   26.716845 H          1 MOL1         0.3624
      26    H18     17.573301   18.464134   26.417597 H          1 MOL1         0.3624
@<TRIPOS>BOND
    1     1     2    1
    2     1     3    1
    3     1     4    1
    4     1     5    1
    5     5     6    1
    6     5     7    1
    7     5     8    1
    8     8     9    1
    9     8    10    1
   10     8    11    1
   11    11    12    1
   12    11    13    1
   13    11    14    1
   14    14    15    1
   15    14    16    1
   16    14    17    1
   17    17    18    1
   18    17    19    1
   19    17    20    1
   20    20    21    1
   21    20    22    1
   22    20    23    1
   23    23    24    1
   24    23    25    1
   25    23    26    1
@<TRIPOS>SUBSTRUCTURE
       1 MOL1            1 RESIDUE      1      MOL     
@<SCITEGIC>MOL_PROPERTY
VM2 Rank
SciTegic.value.IntegerValue
90

@<SCITEGIC>MOL_PROPERTY
Conf_Id
SciTegic.value.IntegerValue
546

@<SCITEGIC>MOL_PROPERTY
Probability
SciTegic.value.DoubleValue
0.06

@<SCITEGIC>MOL_PROPERTY
Sum Probability
SciTegic.value.DoubleValue
98.80

@<SCITEGIC>MOL_PROPERTY
Delta G
SciTegic.value.DoubleValue
2.859

@<SCITEGIC>MOL_PROPERTY
G
SciTegic.value.DoubleValue
51.120

@<SCITEGIC>MOL_PROPERTY
E
SciTegic.value.DoubleValue
18.633

@<SCITEGIC>MOL_PROPERTY
-TS
SciTegic.value.DoubleValue
32.487

@<SCITEGIC>MOL_PROPERTY
U+W
SciTegic.value.DoubleValue
-2.829

@<SCITEGIC>MOL_PROPERTY
U
SciTegic.value.DoubleValue
50.868

@<SCITEGIC>MOL_PROPERTY
W
SciTegic.value.DoubleValue
-53.697

@<SCITEGIC>MOL_PROPERTY
W(PB)
SciTegic.value.DoubleValue
-56.030

@<SCITEGIC>MOL_PROPERTY
W(SA)
SciTegic.value.DoubleValue
2.333

@<SCITEGIC>MOL_PROPERTY
Valence
SciTegic.value.DoubleValue
4.695

@<SCITEGIC>MOL_PROPERTY
Coulomb
SciTegic.value.DoubleValue
45.536

@<SCITEGIC>MOL_PROPERTY
VdW
SciTegic.value.DoubleValue
0.636

@<SCITEGIC>MOL_PROPERTY
VdW6
SciTegic.value.DoubleValue
-7.287

@<SCITEGIC>MOL_PROPERTY
VdW12
SciTegic.value.DoubleValue
7.924

@<SCITEGIC>MOL_PROPERTY
Bond
SciTegic.value.DoubleValue
0.211

@<SCITEGIC>MOL_PROPERTY
Angle
SciTegic.value.DoubleValue
1.115

@<SCITEGIC>MOL_PROPERTY
Pdih
SciTegic.value.DoubleValue
3.370

@<SCITEGIC>MOL_PROPERTY
Idih
SciTegic.value.DoubleValue
0.000

@<SCITEGIC>MOL_PROPERTY
Tether
SciTegic.value.DoubleValue
0.000

@<TRIPOS>MOLECULE
guest-s14_vm2.mol2 : vm2 ligand conformer 91
          26          25           1
SMALL
USER_CHARGES
 
@<TRIPOS>ATOM
       1    C1      18.543713   19.113621   20.005803 C.3        1 MOL1        -0.2400
       2    H1      18.505889   18.905539   18.928626 H          1 MOL1         0.0971
       3    H2      17.772429   18.503737   20.494056 H          1 MOL1         0.0971
       4    H3      18.288183   20.170972   20.153944 H          1 MOL1         0.0971
       5    C2      19.943616   18.796540   20.573175 C.3        1 MOL1        -0.1385
       6    H4      20.696034   19.395680   20.041392 H          1 MOL1         0.0960
       7    H5      20.184714   17.741556   20.381252 H          1 MOL1         0.0960
       8    C3      20.024025   19.082207   22.089163 C.3        1 MOL1        -0.1409
       9    H6      19.788138   20.138983   22.275522 H          1 MOL1         0.0960
      10    H7      19.261961   18.481557   22.601850 H          1 MOL1         0.0960
      11    C4      21.421530   18.750950   22.663011 C.3        1 MOL1        -0.1409
      12    H8      22.186500   19.237542   22.042161 H          1 MOL1         0.0960
      13    H9      21.603142   17.670534   22.579192 H          1 MOL1         0.0960
      14    C5      21.637923   19.197917   24.132191 C.3        1 MOL1        -0.1409
      15    H10     22.673071   18.949504   24.404649 H          1 MOL1         0.0960
      16    H11     21.564977   20.291721   24.208797 H          1 MOL1         0.0960
      17    C6      20.694536   18.529859   25.164097 C.3        1 MOL1        -0.1450
      18    H12     21.204306   18.501742   26.136392 H          1 MOL1         0.0960
      19    H13     20.505923   17.485337   24.882547 H          1 MOL1         0.0960
      20    C7      19.363505   19.285721   25.344318 C.3        1 MOL1         0.0172
      21    H14     19.565655   20.309546   25.670337 H          1 MOL1         0.0934
      22    H15     18.821533   19.330673   24.397950 H          1 MOL1         0.0934
      23    N1      18.452153   18.642185   26.369242 N.4        1 MOL1        -0.5956
      24    H16     17.574395   19.161755   26.478471 H          1 MOL1         0.3624
      25    H17     18.889852   18.598479   27.295359 H          1 MOL1         0.3624
      26    H18     18.201082   17.682910   26.108760 H          1 MOL1         0.3624
@<TRIPOS>BOND
    1     1     2    1
    2     1     3    1
    3     1     4    1
    4     1     5    1
    5     5     6    1
    6     5     7    1
    7     5     8    1
    8     8     9    1
    9     8    10    1
   10     8    11    1
   11    11    12    1
   12    11    13    1
   13    11    14    1
   14    14    15    1
   15    14    16    1
   16    14    17    1
   17    17    18    1
   18    17    19    1
   19    17    20    1
   20    20    21    1
   21    20    22    1
   22    20    23    1
   23    23    24    1
   24    23    25    1
   25    23    26    1
@<TRIPOS>SUBSTRUCTURE
       1 MOL1            1 RESIDUE      1      MOL     
@<SCITEGIC>MOL_PROPERTY
VM2 Rank
SciTegic.value.IntegerValue
91

@<SCITEGIC>MOL_PROPERTY
Conf_Id
SciTegic.value.IntegerValue
187

@<SCITEGIC>MOL_PROPERTY
Probability
SciTegic.value.DoubleValue
0.06

@<SCITEGIC>MOL_PROPERTY
Sum Probability
SciTegic.value.DoubleValue
98.86

@<SCITEGIC>MOL_PROPERTY
Delta G
SciTegic.value.DoubleValue
2.872

@<SCITEGIC>MOL_PROPERTY
G
SciTegic.value.DoubleValue
51.133

@<SCITEGIC>MOL_PROPERTY
E
SciTegic.value.DoubleValue
18.444

@<SCITEGIC>MOL_PROPERTY
-TS
SciTegic.value.DoubleValue
32.689

@<SCITEGIC>MOL_PROPERTY
U+W
SciTegic.value.DoubleValue
-3.018

@<SCITEGIC>MOL_PROPERTY
U
SciTegic.value.DoubleValue
50.863

@<SCITEGIC>MOL_PROPERTY
W
SciTegic.value.DoubleValue
-53.880

@<SCITEGIC>MOL_PROPERTY
W(PB)
SciTegic.value.DoubleValue
-56.198

@<SCITEGIC>MOL_PROPERTY
W(SA)
SciTegic.value.DoubleValue
2.318

@<SCITEGIC>MOL_PROPERTY
Valence
SciTegic.value.DoubleValue
4.548

@<SCITEGIC>MOL_PROPERTY
Coulomb
SciTegic.value.DoubleValue
45.757

@<SCITEGIC>MOL_PROPERTY
VdW
SciTegic.value.DoubleValue
0.558

@<SCITEGIC>MOL_PROPERTY
VdW6
SciTegic.value.DoubleValue
-7.490

@<SCITEGIC>MOL_PROPERTY
VdW12
SciTegic.value.DoubleValue
8.048

@<SCITEGIC>MOL_PROPERTY
Bond
SciTegic.value.DoubleValue
0.198

@<SCITEGIC>MOL_PROPERTY
Angle
SciTegic.value.DoubleValue
1.148

@<SCITEGIC>MOL_PROPERTY
Pdih
SciTegic.value.DoubleValue
3.203

@<SCITEGIC>MOL_PROPERTY
Idih
SciTegic.value.DoubleValue
0.000

@<SCITEGIC>MOL_PROPERTY
Tether
SciTegic.value.DoubleValue
0.000

@<TRIPOS>MOLECULE
guest-s14_vm2.mol2 : vm2 ligand conformer 92
          26          25           1
SMALL
USER_CHARGES
 
@<TRIPOS>ATOM
       1    C1      19.197956   20.131727   20.000478 C.3        1 MOL1        -0.2400
       2    H1      19.266772   20.131261   18.904898 H          1 MOL1         0.0971
       3    H2      18.137878   20.042545   20.271611 H          1 MOL1         0.0971
       4    H3      19.562518   21.102635   20.360549 H          1 MOL1         0.0971
       5    C2      20.022890   18.972527   20.598750 C.3        1 MOL1        -0.1385
       6    H4      21.071389   19.070383   20.284066 H          1 MOL1         0.0960
       7    H5      19.657583   18.018730   20.192909 H          1 MOL1         0.0960
       8    C3      19.941530   18.949771   22.141213 C.3        1 MOL1        -0.1409
       9    H6      20.303025   19.911465   22.526416 H          1 MOL1         0.0960
      10    H7      18.892606   18.845692   22.450936 H          1 MOL1         0.0960
      11    C4      20.780737   17.799070   22.743983 C.3        1 MOL1        -0.1409
      12    H8      21.845469   17.979354   22.541254 H          1 MOL1         0.0960
      13    H9      20.526492   16.863913   22.226068 H          1 MOL1         0.0960
      14    C5      20.574480   17.576537   24.264810 C.3        1 MOL1        -0.1409
      15    H10     19.534728   17.286221   24.463355 H          1 MOL1         0.0960
      16    H11     21.181201   16.707322   24.554174 H          1 MOL1         0.0960
      17    C6      20.991633   18.769697   25.165940 C.3        1 MOL1        -0.1450
      18    H12     21.901968   19.234505   24.764753 H          1 MOL1         0.0960
      19    H13     21.262423   18.387256   26.159074 H          1 MOL1         0.0960
      20    C7      19.902944   19.848330   25.349363 C.3        1 MOL1         0.0172
      21    H14     20.314162   20.678135   25.930593 H          1 MOL1         0.0934
      22    H15     19.587159   20.239531   24.380869 H          1 MOL1         0.0934
      23    N1      18.668831   19.351342   26.076462 N.4        1 MOL1        -0.5956
      24    H16     17.973369   20.095360   26.198754 H          1 MOL1         0.3624
      25    H17     18.895254   18.997053   27.011432 H          1 MOL1         0.3624
      26    H18     18.208673   18.590518   25.567577 H          1 MOL1         0.3624
@<TRIPOS>BOND
    1     1     2    1
    2     1     3    1
    3     1     4    1
    4     1     5    1
    5     5     6    1
    6     5     7    1
    7     5     8    1
    8     8     9    1
    9     8    10    1
   10     8    11    1
   11    11    12    1
   12    11    13    1
   13    11    14    1
   14    14    15    1
   15    14    16    1
   16    14    17    1
   17    17    18    1
   18    17    19    1
   19    17    20    1
   20    20    21    1
   21    20    22    1
   22    20    23    1
   23    23    24    1
   24    23    25    1
   25    23    26    1
@<TRIPOS>SUBSTRUCTURE
       1 MOL1            1 RESIDUE      1      MOL     
@<SCITEGIC>MOL_PROPERTY
VM2 Rank
SciTegic.value.IntegerValue
92

@<SCITEGIC>MOL_PROPERTY
Conf_Id
SciTegic.value.IntegerValue
1099

@<SCITEGIC>MOL_PROPERTY
Probability
SciTegic.value.DoubleValue
0.03

@<SCITEGIC>MOL_PROPERTY
Sum Probability
SciTegic.value.DoubleValue
98.90

@<SCITEGIC>MOL_PROPERTY
Delta G
SciTegic.value.DoubleValue
3.275

@<SCITEGIC>MOL_PROPERTY
G
SciTegic.value.DoubleValue
51.537

@<SCITEGIC>MOL_PROPERTY
E
SciTegic.value.DoubleValue
18.787

@<SCITEGIC>MOL_PROPERTY
-TS
SciTegic.value.DoubleValue
32.750

@<SCITEGIC>MOL_PROPERTY
U+W
SciTegic.value.DoubleValue
-2.675

@<SCITEGIC>MOL_PROPERTY
U
SciTegic.value.DoubleValue
51.397

@<SCITEGIC>MOL_PROPERTY
W
SciTegic.value.DoubleValue
-54.072

@<SCITEGIC>MOL_PROPERTY
W(PB)
SciTegic.value.DoubleValue
-56.387

@<SCITEGIC>MOL_PROPERTY
W(SA)
SciTegic.value.DoubleValue
2.315

@<SCITEGIC>MOL_PROPERTY
Valence
SciTegic.value.DoubleValue
4.709

@<SCITEGIC>MOL_PROPERTY
Coulomb
SciTegic.value.DoubleValue
46.079

@<SCITEGIC>MOL_PROPERTY
VdW
SciTegic.value.DoubleValue
0.609

@<SCITEGIC>MOL_PROPERTY
VdW6
SciTegic.value.DoubleValue
-8.057

@<SCITEGIC>MOL_PROPERTY
VdW12
SciTegic.value.DoubleValue
8.666

@<SCITEGIC>MOL_PROPERTY
Bond
SciTegic.value.DoubleValue
0.231

@<SCITEGIC>MOL_PROPERTY
Angle
SciTegic.value.DoubleValue
1.340

@<SCITEGIC>MOL_PROPERTY
Pdih
SciTegic.value.DoubleValue
3.138

@<SCITEGIC>MOL_PROPERTY
Idih
SciTegic.value.DoubleValue
0.000

@<SCITEGIC>MOL_PROPERTY
Tether
SciTegic.value.DoubleValue
0.000

@<TRIPOS>MOLECULE
guest-s14_vm2.mol2 : vm2 ligand conformer 93
          26          25           1
SMALL
USER_CHARGES
 
@<TRIPOS>ATOM
       1    C1      18.799451   19.772315   20.416504 C.3        1 MOL1        -0.2400
       2    H1      18.507348   20.038449   21.438211 H          1 MOL1         0.0971
       3    H2      19.244561   20.660938   19.950381 H          1 MOL1         0.0971
       4    H3      17.883979   19.529107   19.861834 H          1 MOL1         0.0971
       5    C2      19.784378   18.580360   20.383362 C.3        1 MOL1        -0.1385
       6    H4      20.009779   18.357362   19.331040 H          1 MOL1         0.0960
       7    H5      19.305627   17.677527   20.787432 H          1 MOL1         0.0960
       8    C3      21.116932   18.861647   21.124485 C.3        1 MOL1        -0.1409
       9    H6      21.924903   18.355657   20.578073 H          1 MOL1         0.0960
      10    H7      21.357098   19.932915   21.081279 H          1 MOL1         0.0960
      11    C4      21.164434   18.363272   22.592077 C.3        1 MOL1        -0.1409
      12    H8      22.172540   18.552651   22.986018 H          1 MOL1         0.0960
      13    H9      21.028737   17.273095   22.611496 H          1 MOL1         0.0960
      14    C5      20.126217   19.027302   23.525970 C.3        1 MOL1        -0.1409
      15    H10     20.193509   20.120266   23.434734 H          1 MOL1         0.0960
      16    H11     19.113464   18.736696   23.217716 H          1 MOL1         0.0960
      17    C6      20.335949   18.619279   25.000850 C.3        1 MOL1        -0.1450
      18    H12     21.343032   18.911921   25.326736 H          1 MOL1         0.0960
      19    H13     20.270978   17.527024   25.095033 H          1 MOL1         0.0960
      20    C7      19.290779   19.275448   25.920118 C.3        1 MOL1         0.0172
      21    H14     19.362850   20.363617   25.841575 H          1 MOL1         0.0934
      22    H15     18.286608   18.973822   25.610067 H          1 MOL1         0.0934
      23    N1      19.462860   18.899377   27.377635 N.4        1 MOL1        -0.5956
      24    H16     19.378565   17.888080   27.523943 H          1 MOL1         0.3624
      25    H17     18.756948   19.346908   27.972477 H          1 MOL1         0.3624
      26    H18     20.379887   19.181257   27.739357 H          1 MOL1         0.3624
@<TRIPOS>BOND
    1     1     2    1
    2     1     3    1
    3     1     4    1
    4     1     5    1
    5     5     6    1
    6     5     7    1
    7     5     8    1
    8     8     9    1
    9     8    10    1
   10     8    11    1
   11    11    12    1
   12    11    13    1
   13    11    14    1
   14    14    15    1
   15    14    16    1
   16    14    17    1
   17    17    18    1
   18    17    19    1
   19    17    20    1
   20    20    21    1
   21    20    22    1
   22    20    23    1
   23    23    24    1
   24    23    25    1
   25    23    26    1
@<TRIPOS>SUBSTRUCTURE
       1 MOL1            1 RESIDUE      1      MOL     
@<SCITEGIC>MOL_PROPERTY
VM2 Rank
SciTegic.value.IntegerValue
93

@<SCITEGIC>MOL_PROPERTY
Conf_Id
SciTegic.value.IntegerValue
752

@<SCITEGIC>MOL_PROPERTY
Probability
SciTegic.value.DoubleValue
0.03

@<SCITEGIC>MOL_PROPERTY
Sum Probability
SciTegic.value.DoubleValue
98.93

@<SCITEGIC>MOL_PROPERTY
Delta G
SciTegic.value.DoubleValue
3.307

@<SCITEGIC>MOL_PROPERTY
G
SciTegic.value.DoubleValue
51.568

@<SCITEGIC>MOL_PROPERTY
E
SciTegic.value.DoubleValue
18.875

@<SCITEGIC>MOL_PROPERTY
-TS
SciTegic.value.DoubleValue
32.693

@<SCITEGIC>MOL_PROPERTY
U+W
SciTegic.value.DoubleValue
-2.587

@<SCITEGIC>MOL_PROPERTY
U
SciTegic.value.DoubleValue
50.680

@<SCITEGIC>MOL_PROPERTY
W
SciTegic.value.DoubleValue
-53.267

@<SCITEGIC>MOL_PROPERTY
W(PB)
SciTegic.value.DoubleValue
-55.570

@<SCITEGIC>MOL_PROPERTY
W(SA)
SciTegic.value.DoubleValue
2.303

@<SCITEGIC>MOL_PROPERTY
Valence
SciTegic.value.DoubleValue
5.154

@<SCITEGIC>MOL_PROPERTY
Coulomb
SciTegic.value.DoubleValue
44.814

@<SCITEGIC>MOL_PROPERTY
VdW
SciTegic.value.DoubleValue
0.713

@<SCITEGIC>MOL_PROPERTY
VdW6
SciTegic.value.DoubleValue
-7.314

@<SCITEGIC>MOL_PROPERTY
VdW12
SciTegic.value.DoubleValue
8.027

@<SCITEGIC>MOL_PROPERTY
Bond
SciTegic.value.DoubleValue
0.213

@<SCITEGIC>MOL_PROPERTY
Angle
SciTegic.value.DoubleValue
1.193

@<SCITEGIC>MOL_PROPERTY
Pdih
SciTegic.value.DoubleValue
3.748

@<SCITEGIC>MOL_PROPERTY
Idih
SciTegic.value.DoubleValue
0.000

@<SCITEGIC>MOL_PROPERTY
Tether
SciTegic.value.DoubleValue
0.000

@<TRIPOS>MOLECULE
guest-s14_vm2.mol2 : vm2 ligand conformer 94
          26          25           1
SMALL
USER_CHARGES
 
@<TRIPOS>ATOM
       1    C1      19.840810   20.459200   20.451256 C.3        1 MOL1        -0.2400
       2    H1      18.871575   20.414851   19.937777 H          1 MOL1         0.0971
       3    H2      19.663369   20.801023   21.476784 H          1 MOL1         0.0971
       4    H3      20.449428   21.221297   19.947578 H          1 MOL1         0.0971
       5    C2      20.550616   19.085764   20.408976 C.3        1 MOL1        -0.1385
       6    H4      21.549023   19.157333   20.862455 H          1 MOL1         0.0960
       7    H5      20.715994   18.823124   19.354658 H          1 MOL1         0.0960
       8    C3      19.734652   17.949847   21.078287 C.3        1 MOL1        -0.1409
       9    H6      18.658367   18.152733   20.991051 H          1 MOL1         0.0960
      10    H7      19.907732   17.025041   20.510673 H          1 MOL1         0.0960
      11    C4      20.105459   17.664776   22.556697 C.3        1 MOL1        -0.1409
      12    H8      21.159229   17.359255   22.615898 H          1 MOL1         0.0960
      13    H9      19.517491   16.801279   22.897279 H          1 MOL1         0.0960
      14    C5      19.859491   18.851437   23.517073 C.3        1 MOL1        -0.1409
      15    H10     20.538204   19.676728   23.265320 H          1 MOL1         0.0960
      16    H11     18.833321   19.223034   23.389350 H          1 MOL1         0.0960
      17    C6      20.083455   18.452733   24.992409 C.3        1 MOL1        -0.1450
      18    H12     21.107930   18.079198   25.122928 H          1 MOL1         0.0960
      19    H13     19.404282   17.632906   25.261975 H          1 MOL1         0.0960
      20    C7      19.848132   19.643119   25.938769 C.3        1 MOL1         0.0172
      21    H14     20.533656   20.456255   25.685130 H          1 MOL1         0.0934
      22    H15     18.823889   20.008024   25.823685 H          1 MOL1         0.0934
      23    N1      20.058385   19.292125   27.397534 N.4        1 MOL1        -0.5956
      24    H16     21.013649   18.966610   27.578484 H          1 MOL1         0.3624
      25    H17     19.422763   18.549704   27.707430 H          1 MOL1         0.3624
      26    H18     19.896702   20.098639   28.010582 H          1 MOL1         0.3624
@<TRIPOS>BOND
    1     1     2    1
    2     1     3    1
    3     1     4    1
    4     1     5    1
    5     5     6    1
    6     5     7    1
    7     5     8    1
    8     8     9    1
    9     8    10    1
   10     8    11    1
   11    11    12    1
   12    11    13    1
   13    11    14    1
   14    14    15    1
   15    14    16    1
   16    14    17    1
   17    17    18    1
   18    17    19    1
   19    17    20    1
   20    20    21    1
   21    20    22    1
   22    20    23    1
   23    23    24    1
   24    23    25    1
   25    23    26    1
@<TRIPOS>SUBSTRUCTURE
       1 MOL1            1 RESIDUE      1      MOL     
@<SCITEGIC>MOL_PROPERTY
VM2 Rank
SciTegic.value.IntegerValue
94

@<SCITEGIC>MOL_PROPERTY
Conf_Id
SciTegic.value.IntegerValue
439

@<SCITEGIC>MOL_PROPERTY
Probability
SciTegic.value.DoubleValue
0.03

@<SCITEGIC>MOL_PROPERTY
Sum Probability
SciTegic.value.DoubleValue
98.96

@<SCITEGIC>MOL_PROPERTY
Delta G
SciTegic.value.DoubleValue
3.307

@<SCITEGIC>MOL_PROPERTY
G
SciTegic.value.DoubleValue
51.568

@<SCITEGIC>MOL_PROPERTY
E
SciTegic.value.DoubleValue
18.875

@<SCITEGIC>MOL_PROPERTY
-TS
SciTegic.value.DoubleValue
32.693

@<SCITEGIC>MOL_PROPERTY
U+W
SciTegic.value.DoubleValue
-2.586

@<SCITEGIC>MOL_PROPERTY
U
SciTegic.value.DoubleValue
50.680

@<SCITEGIC>MOL_PROPERTY
W
SciTegic.value.DoubleValue
-53.266

@<SCITEGIC>MOL_PROPERTY
W(PB)
SciTegic.value.DoubleValue
-55.566

@<SCITEGIC>MOL_PROPERTY
W(SA)
SciTegic.value.DoubleValue
2.299

@<SCITEGIC>MOL_PROPERTY
Valence
SciTegic.value.DoubleValue
5.154

@<SCITEGIC>MOL_PROPERTY
Coulomb
SciTegic.value.DoubleValue
44.813

@<SCITEGIC>MOL_PROPERTY
VdW
SciTegic.value.DoubleValue
0.713

@<SCITEGIC>MOL_PROPERTY
VdW6
SciTegic.value.DoubleValue
-7.314

@<SCITEGIC>MOL_PROPERTY
VdW12
SciTegic.value.DoubleValue
8.027

@<SCITEGIC>MOL_PROPERTY
Bond
SciTegic.value.DoubleValue
0.213

@<SCITEGIC>MOL_PROPERTY
Angle
SciTegic.value.DoubleValue
1.193

@<SCITEGIC>MOL_PROPERTY
Pdih
SciTegic.value.DoubleValue
3.747

@<SCITEGIC>MOL_PROPERTY
Idih
SciTegic.value.DoubleValue
0.000

@<SCITEGIC>MOL_PROPERTY
Tether
SciTegic.value.DoubleValue
0.000

@<TRIPOS>MOLECULE
guest-s14_vm2.mol2 : vm2 ligand conformer 95
          26          25           1
SMALL
USER_CHARGES
 
@<TRIPOS>ATOM
       1    C1      18.597901   19.020190   20.578914 C.3        1 MOL1        -0.2400
       2    H1      18.417386   20.064106   20.866149 H          1 MOL1         0.0971
       3    H2      17.912552   18.774452   19.757461 H          1 MOL1         0.0971
       4    H3      18.338162   18.373579   21.426069 H          1 MOL1         0.0971
       5    C2      20.063269   18.808009   20.140408 C.3        1 MOL1        -0.1385
       6    H4      20.227936   19.340574   19.193294 H          1 MOL1         0.0960
       7    H5      20.227914   17.743407   19.923067 H          1 MOL1         0.0960
       8    C3      21.115373   19.297197   21.168330 C.3        1 MOL1        -0.1409
       9    H6      22.108178   19.140147   20.724394 H          1 MOL1         0.0960
      10    H7      21.024984   20.382436   21.313858 H          1 MOL1         0.0960
      11    C4      21.076623   18.565063   22.535150 C.3        1 MOL1        -0.1409
      12    H8      22.106254   18.469148   22.906767 H          1 MOL1         0.0960
      13    H9      20.705148   17.539624   22.402329 H          1 MOL1         0.0960
      14    C5      20.243878   19.307601   23.608869 C.3        1 MOL1        -0.1409
      15    H10     20.665706   20.309673   23.768389 H          1 MOL1         0.0960
      16    H11     19.214096   19.454320   23.261942 H          1 MOL1         0.0960
      17    C6      20.224275   18.541791   24.950012 C.3        1 MOL1        -0.1450
      18    H12     21.251598   18.404299   25.313018 H          1 MOL1         0.0960
      19    H13     19.799309   17.540672   24.797568 H          1 MOL1         0.0960
      20    C7      19.401648   19.290001   26.013724 C.3        1 MOL1         0.0172
      21    H14     19.830802   20.281687   26.180636 H          1 MOL1         0.0934
      22    H15     18.373375   19.414534   25.663563 H          1 MOL1         0.0934
      23    N1      19.358033   18.569149   27.345594 N.4        1 MOL1        -0.5956
      24    H16     18.938665   17.637261   27.262304 H          1 MOL1         0.3624
      25    H17     18.805394   19.084246   28.039641 H          1 MOL1         0.3624
      26    H18     20.294742   18.444155   27.743325 H          1 MOL1         0.3624
@<TRIPOS>BOND
    1     1     2    1
    2     1     3    1
    3     1     4    1
    4     1     5    1
    5     5     6    1
    6     5     7    1
    7     5     8    1
    8     8     9    1
    9     8    10    1
   10     8    11    1
   11    11    12    1
   12    11    13    1
   13    11    14    1
   14    14    15    1
   15    14    16    1
   16    14    17    1
   17    17    18    1
   18    17    19    1
   19    17    20    1
   20    20    21    1
   21    20    22    1
   22    20    23    1
   23    23    24    1
   24    23    25    1
   25    23    26    1
@<TRIPOS>SUBSTRUCTURE
       1 MOL1            1 RESIDUE      1      MOL     
@<SCITEGIC>MOL_PROPERTY
VM2 Rank
SciTegic.value.IntegerValue
95

@<SCITEGIC>MOL_PROPERTY
Conf_Id
SciTegic.value.IntegerValue
1248

@<SCITEGIC>MOL_PROPERTY
Probability
SciTegic.value.DoubleValue
0.03

@<SCITEGIC>MOL_PROPERTY
Sum Probability
SciTegic.value.DoubleValue
98.99

@<SCITEGIC>MOL_PROPERTY
Delta G
SciTegic.value.DoubleValue
3.310

@<SCITEGIC>MOL_PROPERTY
G
SciTegic.value.DoubleValue
51.571

@<SCITEGIC>MOL_PROPERTY
E
SciTegic.value.DoubleValue
18.868

@<SCITEGIC>MOL_PROPERTY
-TS
SciTegic.value.DoubleValue
32.704

@<SCITEGIC>MOL_PROPERTY
U+W
SciTegic.value.DoubleValue
-2.594

@<SCITEGIC>MOL_PROPERTY
U
SciTegic.value.DoubleValue
50.662

@<SCITEGIC>MOL_PROPERTY
W
SciTegic.value.DoubleValue
-53.256

@<SCITEGIC>MOL_PROPERTY
W(PB)
SciTegic.value.DoubleValue
-55.568

@<SCITEGIC>MOL_PROPERTY
W(SA)
SciTegic.value.DoubleValue
2.312

@<SCITEGIC>MOL_PROPERTY
Valence
SciTegic.value.DoubleValue
5.128

@<SCITEGIC>MOL_PROPERTY
Coulomb
SciTegic.value.DoubleValue
44.842

@<SCITEGIC>MOL_PROPERTY
VdW
SciTegic.value.DoubleValue
0.692

@<SCITEGIC>MOL_PROPERTY
VdW6
SciTegic.value.DoubleValue
-7.327

@<SCITEGIC>MOL_PROPERTY
VdW12
SciTegic.value.DoubleValue
8.019

@<SCITEGIC>MOL_PROPERTY
Bond
SciTegic.value.DoubleValue
0.214

@<SCITEGIC>MOL_PROPERTY
Angle
SciTegic.value.DoubleValue
1.153

@<SCITEGIC>MOL_PROPERTY
Pdih
SciTegic.value.DoubleValue
3.761

@<SCITEGIC>MOL_PROPERTY
Idih
SciTegic.value.DoubleValue
0.000

@<SCITEGIC>MOL_PROPERTY
Tether
SciTegic.value.DoubleValue
0.000

@<TRIPOS>MOLECULE
guest-s14_vm2.mol2 : vm2 ligand conformer 96
          26          25           1
SMALL
USER_CHARGES
 
@<TRIPOS>ATOM
       1    C1      19.372662   20.247104   20.006385 C.3        1 MOL1        -0.2400
       2    H1      18.320959   20.283144   20.319179 H          1 MOL1         0.0971
       3    H2      19.857504   21.177700   20.329110 H          1 MOL1         0.0971
       4    H3      19.397027   20.217320   18.909320 H          1 MOL1         0.0971
       5    C2      20.086617   19.014635   20.600929 C.3        1 MOL1        -0.1385
       6    H4      21.125029   18.987437   20.241977 H          1 MOL1         0.0960
       7    H5      19.600393   18.099423   20.234970 H          1 MOL1         0.0960
       8    C3      20.067692   19.033064   22.145476 C.3        1 MOL1        -0.1409
       9    H6      20.560024   19.946369   22.506703 H          1 MOL1         0.0960
      10    H7      19.024475   19.067496   22.483739 H          1 MOL1         0.0960
      11    C4      20.768026   17.790689   22.743593 C.3        1 MOL1        -0.1409
      12    H8      21.750955   17.672172   22.266939 H          1 MOL1         0.0960
      13    H9      20.194449   16.889570   22.486202 H          1 MOL1         0.0960
      14    C5      20.982744   17.845997   24.278461 C.3        1 MOL1        -0.1409
      15    H10     21.530290   16.937695   24.565790 H          1 MOL1         0.0960
      16    H11     21.647693   18.681092   24.533895 H          1 MOL1         0.0960
      17    C6      19.681126   17.904360   25.122306 C.3        1 MOL1        -0.1450
      18    H12     19.880438   17.474803   26.113094 H          1 MOL1         0.0960
      19    H13     18.916032   17.262858   24.665342 H          1 MOL1         0.0960
      20    C7      19.107858   19.323341   25.322802 C.3        1 MOL1         0.0172
      21    H14     18.916872   19.796913   24.358442 H          1 MOL1         0.0934
      22    H15     18.157350   19.254013   25.858743 H          1 MOL1         0.0934
      23    N1      20.014275   20.239810   26.121047 N.4        1 MOL1        -0.5956
      24    H16     19.597320   21.167737   26.252522 H          1 MOL1         0.3624
      25    H17     20.917223   20.378999   25.657506 H          1 MOL1         0.3624
      26    H18     20.207859   19.863918   27.054958 H          1 MOL1         0.3624
@<TRIPOS>BOND
    1     1     2    1
    2     1     3    1
    3     1     4    1
    4     1     5    1
    5     5     6    1
    6     5     7    1
    7     5     8    1
    8     8     9    1
    9     8    10    1
   10     8    11    1
   11    11    12    1
   12    11    13    1
   13    11    14    1
   14    14    15    1
   15    14    16    1
   16    14    17    1
   17    17    18    1
   18    17    19    1
   19    17    20    1
   20    20    21    1
   21    20    22    1
   22    20    23    1
   23    23    24    1
   24    23    25    1
   25    23    26    1
@<TRIPOS>SUBSTRUCTURE
       1 MOL1            1 RESIDUE      1      MOL     
@<SCITEGIC>MOL_PROPERTY
VM2 Rank
SciTegic.value.IntegerValue
96

@<SCITEGIC>MOL_PROPERTY
Conf_Id
SciTegic.value.IntegerValue
1349

@<SCITEGIC>MOL_PROPERTY
Probability
SciTegic.value.DoubleValue
0.03

@<SCITEGIC>MOL_PROPERTY
Sum Probability
SciTegic.value.DoubleValue
99.02

@<SCITEGIC>MOL_PROPERTY
Delta G
SciTegic.value.DoubleValue
3.321

@<SCITEGIC>MOL_PROPERTY
G
SciTegic.value.DoubleValue
51.582

@<SCITEGIC>MOL_PROPERTY
E
SciTegic.value.DoubleValue
18.833

@<SCITEGIC>MOL_PROPERTY
-TS
SciTegic.value.DoubleValue
32.750

@<SCITEGIC>MOL_PROPERTY
U+W
SciTegic.value.DoubleValue
-2.629

@<SCITEGIC>MOL_PROPERTY
U
SciTegic.value.DoubleValue
51.398

@<SCITEGIC>MOL_PROPERTY
W
SciTegic.value.DoubleValue
-54.027

@<SCITEGIC>MOL_PROPERTY
W(PB)
SciTegic.value.DoubleValue
-56.343

@<SCITEGIC>MOL_PROPERTY
W(SA)
SciTegic.value.DoubleValue
2.316

@<SCITEGIC>MOL_PROPERTY
Valence
SciTegic.value.DoubleValue
4.709

@<SCITEGIC>MOL_PROPERTY
Coulomb
SciTegic.value.DoubleValue
46.080

@<SCITEGIC>MOL_PROPERTY
VdW
SciTegic.value.DoubleValue
0.609

@<SCITEGIC>MOL_PROPERTY
VdW6
SciTegic.value.DoubleValue
-8.057

@<SCITEGIC>MOL_PROPERTY
VdW12
SciTegic.value.DoubleValue
8.666

@<SCITEGIC>MOL_PROPERTY
Bond
SciTegic.value.DoubleValue
0.231

@<SCITEGIC>MOL_PROPERTY
Angle
SciTegic.value.DoubleValue
1.341

@<SCITEGIC>MOL_PROPERTY
Pdih
SciTegic.value.DoubleValue
3.137

@<SCITEGIC>MOL_PROPERTY
Idih
SciTegic.value.DoubleValue
0.000

@<SCITEGIC>MOL_PROPERTY
Tether
SciTegic.value.DoubleValue
0.000

@<TRIPOS>MOLECULE
guest-s14_vm2.mol2 : vm2 ligand conformer 97
          26          25           1
SMALL
USER_CHARGES
 
@<TRIPOS>ATOM
       1    C1      18.852034   18.191475   20.387058 C.3        1 MOL1        -0.2400
       2    H1      18.503064   18.084945   19.351785 H          1 MOL1         0.0971
       3    H2      19.429261   17.292021   20.634294 H          1 MOL1         0.0971
       4    H3      17.968347   18.223085   21.037520 H          1 MOL1         0.0971
       5    C2      19.702330   19.472824   20.541786 C.3        1 MOL1        -0.1385
       6    H4      19.122598   20.329109   20.169642 H          1 MOL1         0.0960
       7    H5      20.594102   19.404800   19.903150 H          1 MOL1         0.0960
       8    C3      20.123757   19.756221   22.003754 C.3        1 MOL1        -0.1409
       9    H6      20.617230   20.737243   22.037530 H          1 MOL1         0.0960
      10    H7      19.223691   19.845337   22.622394 H          1 MOL1         0.0960
      11    C4      21.087698   18.687499   22.581777 C.3        1 MOL1        -0.1409
      12    H8      21.944050   18.597868   21.899211 H          1 MOL1         0.0960
      13    H9      20.609044   17.699753   22.600522 H          1 MOL1         0.0960
      14    C5      21.628659   19.031554   23.994376 C.3        1 MOL1        -0.1409
      15    H10     22.629407   18.588523   24.092881 H          1 MOL1         0.0960
      16    H11     21.773523   20.116147   24.093841 H          1 MOL1         0.0960
      17    C6      20.766386   18.498095   25.166153 C.3        1 MOL1        -0.1450
      18    H12     21.284047   18.719214   26.109064 H          1 MOL1         0.0960
      19    H13     20.694251   17.404286   25.100939 H          1 MOL1         0.0960
      20    C7      19.351697   19.100615   25.223061 C.3        1 MOL1         0.0172
      21    H14     19.415537   20.191971   25.237537 H          1 MOL1         0.0934
      22    H15     18.787208   18.796143   24.338506 H          1 MOL1         0.0934
      23    N1      18.568440   18.660716   26.443035 N.4        1 MOL1        -0.5956
      24    H16     18.451338   17.642674   26.475210 H          1 MOL1         0.3624
      25    H17     17.628104   19.070320   26.460468 H          1 MOL1         0.3624
      26    H18     19.031047   18.938863   27.314693 H          1 MOL1         0.3624
@<TRIPOS>BOND
    1     1     2    1
    2     1     3    1
    3     1     4    1
    4     1     5    1
    5     5     6    1
    6     5     7    1
    7     5     8    1
    8     8     9    1
    9     8    10    1
   10     8    11    1
   11    11    12    1
   12    11    13    1
   13    11    14    1
   14    14    15    1
   15    14    16    1
   16    14    17    1
   17    17    18    1
   18    17    19    1
   19    17    20    1
   20    20    21    1
   21    20    22    1
   22    20    23    1
   23    23    24    1
   24    23    25    1
   25    23    26    1
@<TRIPOS>SUBSTRUCTURE
       1 MOL1            1 RESIDUE      1      MOL     
@<SCITEGIC>MOL_PROPERTY
VM2 Rank
SciTegic.value.IntegerValue
97

@<SCITEGIC>MOL_PROPERTY
Conf_Id
SciTegic.value.IntegerValue
1081

@<SCITEGIC>MOL_PROPERTY
Probability
SciTegic.value.DoubleValue
0.03

@<SCITEGIC>MOL_PROPERTY
Sum Probability
SciTegic.value.DoubleValue
99.04

@<SCITEGIC>MOL_PROPERTY
Delta G
SciTegic.value.DoubleValue
3.335

@<SCITEGIC>MOL_PROPERTY
G
SciTegic.value.DoubleValue
51.597

@<SCITEGIC>MOL_PROPERTY
E
SciTegic.value.DoubleValue
19.070

@<SCITEGIC>MOL_PROPERTY
-TS
SciTegic.value.DoubleValue
32.526

@<SCITEGIC>MOL_PROPERTY
U+W
SciTegic.value.DoubleValue
-2.391

@<SCITEGIC>MOL_PROPERTY
U
SciTegic.value.DoubleValue
51.488

@<SCITEGIC>MOL_PROPERTY
W
SciTegic.value.DoubleValue
-53.879

@<SCITEGIC>MOL_PROPERTY
W(PB)
SciTegic.value.DoubleValue
-56.162

@<SCITEGIC>MOL_PROPERTY
W(SA)
SciTegic.value.DoubleValue
2.283

@<SCITEGIC>MOL_PROPERTY
Valence
SciTegic.value.DoubleValue
5.168

@<SCITEGIC>MOL_PROPERTY
Coulomb
SciTegic.value.DoubleValue
45.587

@<SCITEGIC>MOL_PROPERTY
VdW
SciTegic.value.DoubleValue
0.733

@<SCITEGIC>MOL_PROPERTY
VdW6
SciTegic.value.DoubleValue
-7.959

@<SCITEGIC>MOL_PROPERTY
VdW12
SciTegic.value.DoubleValue
8.692

@<SCITEGIC>MOL_PROPERTY
Bond
SciTegic.value.DoubleValue
0.251

@<SCITEGIC>MOL_PROPERTY
Angle
SciTegic.value.DoubleValue
1.360

@<SCITEGIC>MOL_PROPERTY
Pdih
SciTegic.value.DoubleValue
3.557

@<SCITEGIC>MOL_PROPERTY
Idih
SciTegic.value.DoubleValue
0.000

@<SCITEGIC>MOL_PROPERTY
Tether
SciTegic.value.DoubleValue
0.000

@<TRIPOS>MOLECULE
guest-s14_vm2.mol2 : vm2 ligand conformer 98
          26          25           1
SMALL
USER_CHARGES
 
@<TRIPOS>ATOM
       1    C1      21.086927   18.612657   20.037459 C.3        1 MOL1        -0.2400
       2    H1      22.017395   18.401351   20.580217 H          1 MOL1         0.0971
       3    H2      20.480937   17.698152   20.024575 H          1 MOL1         0.0971
       4    H3      21.350454   18.849088   18.998437 H          1 MOL1         0.0971
       5    C2      20.322095   19.790223   20.683217 C.3        1 MOL1        -0.1385
       6    H4      19.385558   19.966783   20.135976 H          1 MOL1         0.0960
       7    H5      20.919995   20.705634   20.572284 H          1 MOL1         0.0960
       8    C3      20.018199   19.573052   22.185127 C.3        1 MOL1        -0.1409
       9    H6      20.965731   19.431141   22.720457 H          1 MOL1         0.0960
      10    H7      19.559303   20.487602   22.585150 H          1 MOL1         0.0960
      11    C4      19.078800   18.371232   22.451779 C.3        1 MOL1        -0.1409
      12    H8      19.600931   17.434039   22.217264 H          1 MOL1         0.0960
      13    H9      18.224982   18.427248   21.762560 H          1 MOL1         0.0960
      14    C5      18.526968   18.295677   23.899077 C.3        1 MOL1        -0.1409
      15    H10     17.920590   19.185130   24.119808 H          1 MOL1         0.0960
      16    H11     17.833443   17.444562   23.944673 H          1 MOL1         0.0960
      17    C6      19.601885   18.099510   24.997824 C.3        1 MOL1        -0.1450
      18    H12     20.393184   17.429457   24.636240 H          1 MOL1         0.0960
      19    H13     19.136271   17.595336   25.855152 H          1 MOL1         0.0960
      20    C7      20.209020   19.425698   25.495470 C.3        1 MOL1         0.0172
      21    H14     20.695210   19.952529   24.672501 H          1 MOL1         0.0934
      22    H15     19.415430   20.066298   25.889434 H          1 MOL1         0.0934
      23    N1      21.237107   19.230951   26.591048 N.4        1 MOL1        -0.5956
      24    H16     22.026397   18.656978   26.276917 H          1 MOL1         0.3624
      25    H17     20.835925   18.768064   27.413219 H          1 MOL1         0.3624
      26    H18     21.626140   20.124274   26.911934 H          1 MOL1         0.3624
@<TRIPOS>BOND
    1     1     2    1
    2     1     3    1
    3     1     4    1
    4     1     5    1
    5     5     6    1
    6     5     7    1
    7     5     8    1
    8     8     9    1
    9     8    10    1
   10     8    11    1
   11    11    12    1
   12    11    13    1
   13    11    14    1
   14    14    15    1
   15    14    16    1
   16    14    17    1
   17    17    18    1
   18    17    19    1
   19    17    20    1
   20    20    21    1
   21    20    22    1
   22    20    23    1
   23    23    24    1
   24    23    25    1
   25    23    26    1
@<TRIPOS>SUBSTRUCTURE
       1 MOL1            1 RESIDUE      1      MOL     
@<SCITEGIC>MOL_PROPERTY
VM2 Rank
SciTegic.value.IntegerValue
98

@<SCITEGIC>MOL_PROPERTY
Conf_Id
SciTegic.value.IntegerValue
524

@<SCITEGIC>MOL_PROPERTY
Probability
SciTegic.value.DoubleValue
0.03

@<SCITEGIC>MOL_PROPERTY
Sum Probability
SciTegic.value.DoubleValue
99.07

@<SCITEGIC>MOL_PROPERTY
Delta G
SciTegic.value.DoubleValue
3.346

@<SCITEGIC>MOL_PROPERTY
G
SciTegic.value.DoubleValue
51.607

@<SCITEGIC>MOL_PROPERTY
E
SciTegic.value.DoubleValue
18.793

@<SCITEGIC>MOL_PROPERTY
-TS
SciTegic.value.DoubleValue
32.815

@<SCITEGIC>MOL_PROPERTY
U+W
SciTegic.value.DoubleValue
-2.669

@<SCITEGIC>MOL_PROPERTY
U
SciTegic.value.DoubleValue
51.327

@<SCITEGIC>MOL_PROPERTY
W
SciTegic.value.DoubleValue
-53.997

@<SCITEGIC>MOL_PROPERTY
W(PB)
SciTegic.value.DoubleValue
-56.277

@<SCITEGIC>MOL_PROPERTY
W(SA)
SciTegic.value.DoubleValue
2.281

@<SCITEGIC>MOL_PROPERTY
Valence
SciTegic.value.DoubleValue
4.992

@<SCITEGIC>MOL_PROPERTY
Coulomb
SciTegic.value.DoubleValue
45.664

@<SCITEGIC>MOL_PROPERTY
VdW
SciTegic.value.DoubleValue
0.672

@<SCITEGIC>MOL_PROPERTY
VdW6
SciTegic.value.DoubleValue
-8.113

@<SCITEGIC>MOL_PROPERTY
VdW12
SciTegic.value.DoubleValue
8.785

@<SCITEGIC>MOL_PROPERTY
Bond
SciTegic.value.DoubleValue
0.231

@<SCITEGIC>MOL_PROPERTY
Angle
SciTegic.value.DoubleValue
1.333

@<SCITEGIC>MOL_PROPERTY
Pdih
SciTegic.value.DoubleValue
3.427

@<SCITEGIC>MOL_PROPERTY
Idih
SciTegic.value.DoubleValue
0.000

@<SCITEGIC>MOL_PROPERTY
Tether
SciTegic.value.DoubleValue
0.000

@<TRIPOS>MOLECULE
guest-s14_vm2.mol2 : vm2 ligand conformer 99
          26          25           1
SMALL
USER_CHARGES
 
@<TRIPOS>ATOM
       1    C1      19.694642   18.753341   19.339549 C.3        1 MOL1        -0.2400
       2    H1      20.278223   17.878241   19.025147 H          1 MOL1         0.0971
       3    H2      18.729683   18.719849   18.817280 H          1 MOL1         0.0971
       4    H3      20.225800   19.655412   19.008831 H          1 MOL1         0.0971
       5    C2      19.486572   18.761907   20.868868 C.3        1 MOL1        -0.1385
       6    H4      18.927417   17.863491   21.165311 H          1 MOL1         0.0960
       7    H5      18.866488   19.626900   21.139549 H          1 MOL1         0.0960
       8    C3      20.833901   18.812985   21.627329 C.3        1 MOL1        -0.1409
       9    H6      21.466819   17.981112   21.288584 H          1 MOL1         0.0960
      10    H7      21.371388   19.734833   21.365442 H          1 MOL1         0.0960
      11    C4      20.680758   18.720025   23.165292 C.3        1 MOL1        -0.1409
      12    H8      21.683314   18.664848   23.611470 H          1 MOL1         0.0960
      13    H9      20.168529   17.781908   23.412617 H          1 MOL1         0.0960
      14    C5      19.915294   19.918996   23.778823 C.3        1 MOL1        -0.1409
      15    H10     20.321150   20.850796   23.361339 H          1 MOL1         0.0960
      16    H11     18.859670   19.880911   23.478494 H          1 MOL1         0.0960
      17    C6      19.998396   20.006321   25.324239 C.3        1 MOL1        -0.1450
      18    H12     19.505118   20.936654   25.635706 H          1 MOL1         0.0960
      19    H13     21.044002   20.097196   25.647192 H          1 MOL1         0.0960
      20    C7      19.314125   18.840785   26.068346 C.3        1 MOL1         0.0172
      21    H14     19.088536   19.155285   27.090937 H          1 MOL1         0.0934
      22    H15     18.371318   18.588534   25.575626 H          1 MOL1         0.0934
      23    N1      20.157311   17.584640   26.168555 N.4        1 MOL1        -0.5956
      24    H16     19.666201   16.836209   26.669606 H          1 MOL1         0.3624
      25    H17     21.033876   17.755536   26.672024 H          1 MOL1         0.3624
      26    H18     20.404842   17.218608   25.245120 H          1 MOL1         0.3624
@<TRIPOS>BOND
    1     1     2    1
    2     1     3    1
    3     1     4    1
    4     1     5    1
    5     5     6    1
    6     5     7    1
    7     5     8    1
    8     8     9    1
    9     8    10    1
   10     8    11    1
   11    11    12    1
   12    11    13    1
   13    11    14    1
   14    14    15    1
   15    14    16    1
   16    14    17    1
   17    17    18    1
   18    17    19    1
   19    17    20    1
   20    20    21    1
   21    20    22    1
   22    20    23    1
   23    23    24    1
   24    23    25    1
   25    23    26    1
@<TRIPOS>SUBSTRUCTURE
       1 MOL1            1 RESIDUE      1      MOL     
@<SCITEGIC>MOL_PROPERTY
VM2 Rank
SciTegic.value.IntegerValue
99

@<SCITEGIC>MOL_PROPERTY
Conf_Id
SciTegic.value.IntegerValue
996

@<SCITEGIC>MOL_PROPERTY
Probability
SciTegic.value.DoubleValue
0.03

@<SCITEGIC>MOL_PROPERTY
Sum Probability
SciTegic.value.DoubleValue
99.10

@<SCITEGIC>MOL_PROPERTY
Delta G
SciTegic.value.DoubleValue
3.346

@<SCITEGIC>MOL_PROPERTY
G
SciTegic.value.DoubleValue
51.608

@<SCITEGIC>MOL_PROPERTY
E
SciTegic.value.DoubleValue
18.966

@<SCITEGIC>MOL_PROPERTY
-TS
SciTegic.value.DoubleValue
32.642

@<SCITEGIC>MOL_PROPERTY
U+W
SciTegic.value.DoubleValue
-2.496

@<SCITEGIC>MOL_PROPERTY
U
SciTegic.value.DoubleValue
51.400

@<SCITEGIC>MOL_PROPERTY
W
SciTegic.value.DoubleValue
-53.897

@<SCITEGIC>MOL_PROPERTY
W(PB)
SciTegic.value.DoubleValue
-56.161

@<SCITEGIC>MOL_PROPERTY
W(SA)
SciTegic.value.DoubleValue
2.265

@<SCITEGIC>MOL_PROPERTY
Valence
SciTegic.value.DoubleValue
4.232

@<SCITEGIC>MOL_PROPERTY
Coulomb
SciTegic.value.DoubleValue
46.515

@<SCITEGIC>MOL_PROPERTY
VdW
SciTegic.value.DoubleValue
0.653

@<SCITEGIC>MOL_PROPERTY
VdW6
SciTegic.value.DoubleValue
-7.962

@<SCITEGIC>MOL_PROPERTY
VdW12
SciTegic.value.DoubleValue
8.615

@<SCITEGIC>MOL_PROPERTY
Bond
SciTegic.value.DoubleValue
0.225

@<SCITEGIC>MOL_PROPERTY
Angle
SciTegic.value.DoubleValue
1.150

@<SCITEGIC>MOL_PROPERTY
Pdih
SciTegic.value.DoubleValue
2.857

@<SCITEGIC>MOL_PROPERTY
Idih
SciTegic.value.DoubleValue
0.000

@<SCITEGIC>MOL_PROPERTY
Tether
SciTegic.value.DoubleValue
0.000

@<TRIPOS>MOLECULE
guest-s14_vm2.mol2 : vm2 ligand conformer 100
          26          25           1
SMALL
USER_CHARGES
 
@<TRIPOS>ATOM
       1    C1      20.602667   20.343119   20.645670 C.3        1 MOL1        -0.2400
       2    H1      21.259231   20.301295   21.523402 H          1 MOL1         0.0971
       3    H2      21.135340   20.901144   19.864811 H          1 MOL1         0.0971
       4    H3      19.701026   20.911154   20.908791 H          1 MOL1         0.0971
       5    C2      20.243353   18.926705   20.146403 C.3        1 MOL1        -0.1385
       6    H4      21.166964   18.362897   19.954599 H          1 MOL1         0.0960
       7    H5      19.733648   19.014034   19.176692 H          1 MOL1         0.0960
       8    C3      19.333382   18.121371   21.108811 C.3        1 MOL1        -0.1409
       9    H6      18.365116   18.627394   21.224982 H          1 MOL1         0.0960
      10    H7      19.108811   17.161073   20.624248 H          1 MOL1         0.0960
      11    C4      19.957572   17.826698   22.497795 C.3        1 MOL1        -0.1409
      12    H8      21.051500   17.768001   22.413923 H          1 MOL1         0.0960
      13    H9      19.624337   16.831704   22.823955 H          1 MOL1         0.0960
      14    C5      19.552338   18.851329   23.585736 C.3        1 MOL1        -0.1409
      15    H10     19.838031   19.865696   23.282793 H          1 MOL1         0.0960
      16    H11     18.458858   18.853923   23.694491 H          1 MOL1         0.0960
      17    C6      20.200872   18.526342   24.949299 C.3        1 MOL1        -0.1450
      18    H12     21.294381   18.526732   24.847743 H          1 MOL1         0.0960
      19    H13     19.906869   17.517396   25.268140 H          1 MOL1         0.0960
      20    C7      19.786962   19.544248   26.026591 C.3        1 MOL1         0.0172
      21    H14     20.092786   20.548544   25.721095 H          1 MOL1         0.0934
      22    H15     18.699786   19.535960   26.142566 H          1 MOL1         0.0934
      23    N1      20.403853   19.259189   27.380694 N.4        1 MOL1        -0.5956
      24    H16     20.115307   19.948558   28.083508 H          1 MOL1         0.3624
      25    H17     21.428353   19.279492   27.345913 H          1 MOL1         0.3624
      26    H18     20.132179   18.337350   27.737968 H          1 MOL1         0.3624
@<TRIPOS>BOND
    1     1     2    1
    2     1     3    1
    3     1     4    1
    4     1     5    1
    5     5     6    1
    6     5     7    1
    7     5     8    1
    8     8     9    1
    9     8    10    1
   10     8    11    1
   11    11    12    1
   12    11    13    1
   13    11    14    1
   14    14    15    1
   15    14    16    1
   16    14    17    1
   17    17    18    1
   18    17    19    1
   19    17    20    1
   20    20    21    1
   21    20    22    1
   22    20    23    1
   23    23    24    1
   24    23    25    1
   25    23    26    1
@<TRIPOS>SUBSTRUCTURE
       1 MOL1            1 RESIDUE      1      MOL     
@<SCITEGIC>MOL_PROPERTY
VM2 Rank
SciTegic.value.IntegerValue
100

@<SCITEGIC>MOL_PROPERTY
Conf_Id
SciTegic.value.IntegerValue
991

@<SCITEGIC>MOL_PROPERTY
Probability
SciTegic.value.DoubleValue
0.03

@<SCITEGIC>MOL_PROPERTY
Sum Probability
SciTegic.value.DoubleValue
99.13

@<SCITEGIC>MOL_PROPERTY
Delta G
SciTegic.value.DoubleValue
3.352

@<SCITEGIC>MOL_PROPERTY
G
SciTegic.value.DoubleValue
51.614

@<SCITEGIC>MOL_PROPERTY
E
SciTegic.value.DoubleValue
18.911

@<SCITEGIC>MOL_PROPERTY
-TS
SciTegic.value.DoubleValue
32.703

@<SCITEGIC>MOL_PROPERTY
U+W
SciTegic.value.DoubleValue
-2.551

@<SCITEGIC>MOL_PROPERTY
U
SciTegic.value.DoubleValue
50.662

@<SCITEGIC>MOL_PROPERTY
W
SciTegic.value.DoubleValue
-53.213

@<SCITEGIC>MOL_PROPERTY
W(PB)
SciTegic.value.DoubleValue
-55.518

@<SCITEGIC>MOL_PROPERTY
W(SA)
SciTegic.value.DoubleValue
2.305

@<SCITEGIC>MOL_PROPERTY
Valence
SciTegic.value.DoubleValue
5.128

@<SCITEGIC>MOL_PROPERTY
Coulomb
SciTegic.value.DoubleValue
44.842

@<SCITEGIC>MOL_PROPERTY
VdW
SciTegic.value.DoubleValue
0.692

@<SCITEGIC>MOL_PROPERTY
VdW6
SciTegic.value.DoubleValue
-7.327

@<SCITEGIC>MOL_PROPERTY
VdW12
SciTegic.value.DoubleValue
8.019

@<SCITEGIC>MOL_PROPERTY
Bond
SciTegic.value.DoubleValue
0.214

@<SCITEGIC>MOL_PROPERTY
Angle
SciTegic.value.DoubleValue
1.153

@<SCITEGIC>MOL_PROPERTY
Pdih
SciTegic.value.DoubleValue
3.761

@<SCITEGIC>MOL_PROPERTY
Idih
SciTegic.value.DoubleValue
0.000

@<SCITEGIC>MOL_PROPERTY
Tether
SciTegic.value.DoubleValue
0.000

@<TRIPOS>MOLECULE
guest-s14_vm2.mol2 : vm2 ligand conformer 101
          26          25           1
SMALL
USER_CHARGES
 
@<TRIPOS>ATOM
       1    C1      19.001014   18.150833   19.905494 C.3        1 MOL1        -0.2400
       2    H1      18.373424   19.006963   19.625460 H          1 MOL1         0.0971
       3    H2      19.759880   18.013012   19.124247 H          1 MOL1         0.0971
       4    H3      18.364808   17.256351   19.918156 H          1 MOL1         0.0971
       5    C2      19.657365   18.372224   21.284777 C.3        1 MOL1        -0.1385
       6    H4      20.256558   17.489830   21.549130 H          1 MOL1         0.0960
       7    H5      18.866904   18.467056   22.040808 H          1 MOL1         0.0960
       8    C3      20.549813   19.634229   21.295584 C.3        1 MOL1        -0.1409
       9    H6      21.252226   19.581178   20.452297 H          1 MOL1         0.0960
      10    H7      19.927526   20.522298   21.118557 H          1 MOL1         0.0960
      11    C4      21.368946   19.830290   22.597555 C.3        1 MOL1        -0.1409
      12    H8      21.991507   20.725783   22.463480 H          1 MOL1         0.0960
      13    H9      22.073978   18.997931   22.729127 H          1 MOL1         0.0960
      14    C5      20.516638   20.022849   23.879097 C.3        1 MOL1        -0.1409
      15    H10     21.027530   20.744916   24.531319 H          1 MOL1         0.0960
      16    H11     19.548781   20.476746   23.624691 H          1 MOL1         0.0960
      17    C6      20.306421   18.716435   24.681696 C.3        1 MOL1        -0.1450
      18    H12     21.281421   18.309948   24.981824 H          1 MOL1         0.0960
      19    H13     19.823322   17.954039   24.060320 H          1 MOL1         0.0960
      20    C7      19.451004   18.962421   25.936898 C.3        1 MOL1         0.0172
      21    H14     19.939005   19.703757   26.575444 H          1 MOL1         0.0934
      22    H15     18.471880   19.351400   25.644546 H          1 MOL1         0.0934
      23    N1      19.229799   17.709719   26.759899 N.4        1 MOL1        -0.5956
      24    H16     20.113667   17.308249   27.089781 H          1 MOL1         0.3624
      25    H17     18.747905   16.980281   26.224336 H          1 MOL1         0.3624
      26    H18     18.658359   17.896381   27.591193 H          1 MOL1         0.3624
@<TRIPOS>BOND
    1     1     2    1
    2     1     3    1
    3     1     4    1
    4     1     5    1
    5     5     6    1
    6     5     7    1
    7     5     8    1
    8     8     9    1
    9     8    10    1
   10     8    11    1
   11    11    12    1
   12    11    13    1
   13    11    14    1
   14    14    15    1
   15    14    16    1
   16    14    17    1
   17    17    18    1
   18    17    19    1
   19    17    20    1
   20    20    21    1
   21    20    22    1
   22    20    23    1
   23    23    24    1
   24    23    25    1
   25    23    26    1
@<TRIPOS>SUBSTRUCTURE
       1 MOL1            1 RESIDUE      1      MOL     
@<SCITEGIC>MOL_PROPERTY
VM2 Rank
SciTegic.value.IntegerValue
101

@<SCITEGIC>MOL_PROPERTY
Conf_Id
SciTegic.value.IntegerValue
1357

@<SCITEGIC>MOL_PROPERTY
Probability
SciTegic.value.DoubleValue
0.03

@<SCITEGIC>MOL_PROPERTY
Sum Probability
SciTegic.value.DoubleValue
99.16

@<SCITEGIC>MOL_PROPERTY
Delta G
SciTegic.value.DoubleValue
3.367

@<SCITEGIC>MOL_PROPERTY
G
SciTegic.value.DoubleValue
51.629

@<SCITEGIC>MOL_PROPERTY
E
SciTegic.value.DoubleValue
18.906

@<SCITEGIC>MOL_PROPERTY
-TS
SciTegic.value.DoubleValue
32.722

@<SCITEGIC>MOL_PROPERTY
U+W
SciTegic.value.DoubleValue
-2.555

@<SCITEGIC>MOL_PROPERTY
U
SciTegic.value.DoubleValue
51.214

@<SCITEGIC>MOL_PROPERTY
W
SciTegic.value.DoubleValue
-53.769

@<SCITEGIC>MOL_PROPERTY
W(PB)
SciTegic.value.DoubleValue
-56.071

@<SCITEGIC>MOL_PROPERTY
W(SA)
SciTegic.value.DoubleValue
2.302

@<SCITEGIC>MOL_PROPERTY
Valence
SciTegic.value.DoubleValue
5.193

@<SCITEGIC>MOL_PROPERTY
Coulomb
SciTegic.value.DoubleValue
45.364

@<SCITEGIC>MOL_PROPERTY
VdW
SciTegic.value.DoubleValue
0.656

@<SCITEGIC>MOL_PROPERTY
VdW6
SciTegic.value.DoubleValue
-7.405

@<SCITEGIC>MOL_PROPERTY
VdW12
SciTegic.value.DoubleValue
8.062

@<SCITEGIC>MOL_PROPERTY
Bond
SciTegic.value.DoubleValue
0.216

@<SCITEGIC>MOL_PROPERTY
Angle
SciTegic.value.DoubleValue
1.176

@<SCITEGIC>MOL_PROPERTY
Pdih
SciTegic.value.DoubleValue
3.801

@<SCITEGIC>MOL_PROPERTY
Idih
SciTegic.value.DoubleValue
0.000

@<SCITEGIC>MOL_PROPERTY
Tether
SciTegic.value.DoubleValue
0.000

@<TRIPOS>MOLECULE
guest-s14_vm2.mol2 : vm2 ligand conformer 102
          26          25           1
SMALL
USER_CHARGES
 
@<TRIPOS>ATOM
       1    C1      21.442714   19.581497   20.126751 C.3        1 MOL1        -0.2400
       2    H1      20.885649   19.661863   19.184173 H          1 MOL1         0.0971
       3    H2      21.562317   20.591321   20.540451 H          1 MOL1         0.0971
       4    H3      22.442404   19.191695   19.895019 H          1 MOL1         0.0971
       5    C2      20.714754   18.656273   21.124702 C.3        1 MOL1        -0.1385
       6    H4      21.318873   18.564081   22.035194 H          1 MOL1         0.0960
       7    H5      20.642094   17.647209   20.695440 H          1 MOL1         0.0960
       8    C3      19.296890   19.180204   21.457914 C.3        1 MOL1        -0.1409
       9    H6      19.346714   20.213134   21.828971 H          1 MOL1         0.0960
      10    H7      18.720798   19.222096   20.523130 H          1 MOL1         0.0960
      11    C4      18.529482   18.286919   22.467328 C.3        1 MOL1        -0.1409
      12    H8      18.861331   17.242987   22.381963 H          1 MOL1         0.0960
      13    H9      17.468236   18.283337   22.182361 H          1 MOL1         0.0960
      14    C5      18.613677   18.754660   23.943384 C.3        1 MOL1        -0.1409
      15    H10     18.177733   19.759361   24.033300 H          1 MOL1         0.0960
      16    H11     17.981682   18.092282   24.551287 H          1 MOL1         0.0960
      17    C6      20.042960   18.761454   24.531201 C.3        1 MOL1        -0.1450
      18    H12     20.653900   19.513345   24.016206 H          1 MOL1         0.0960
      19    H13     20.515568   17.783672   24.368946 H          1 MOL1         0.0960
      20    C7      20.028263   19.079137   26.036766 C.3        1 MOL1         0.0172
      21    H14     19.571277   20.058617   26.201832 H          1 MOL1         0.0934
      22    H15     19.434286   18.328826   26.565610 H          1 MOL1         0.0934
      23    N1      21.412261   19.098856   26.652954 N.4        1 MOL1        -0.5956
      24    H16     22.014591   19.805156   26.217666 H          1 MOL1         0.3624
      25    H17     21.886870   18.195289   26.555528 H          1 MOL1         0.3624
      26    H18     21.379314   19.311900   27.655929 H          1 MOL1         0.3624
@<TRIPOS>BOND
    1     1     2    1
    2     1     3    1
    3     1     4    1
    4     1     5    1
    5     5     6    1
    6     5     7    1
    7     5     8    1
    8     8     9    1
    9     8    10    1
   10     8    11    1
   11    11    12    1
   12    11    13    1
   13    11    14    1
   14    14    15    1
   15    14    16    1
   16    14    17    1
   17    17    18    1
   18    17    19    1
   19    17    20    1
   20    20    21    1
   21    20    22    1
   22    20    23    1
   23    23    24    1
   24    23    25    1
   25    23    26    1
@<TRIPOS>SUBSTRUCTURE
       1 MOL1            1 RESIDUE      1      MOL     
@<SCITEGIC>MOL_PROPERTY
VM2 Rank
SciTegic.value.IntegerValue
102

@<SCITEGIC>MOL_PROPERTY
Conf_Id
SciTegic.value.IntegerValue
1079

@<SCITEGIC>MOL_PROPERTY
Probability
SciTegic.value.DoubleValue
0.03

@<SCITEGIC>MOL_PROPERTY
Sum Probability
SciTegic.value.DoubleValue
99.18

@<SCITEGIC>MOL_PROPERTY
Delta G
SciTegic.value.DoubleValue
3.395

@<SCITEGIC>MOL_PROPERTY
G
SciTegic.value.DoubleValue
51.656

@<SCITEGIC>MOL_PROPERTY
E
SciTegic.value.DoubleValue
18.928

@<SCITEGIC>MOL_PROPERTY
-TS
SciTegic.value.DoubleValue
32.728

@<SCITEGIC>MOL_PROPERTY
U+W
SciTegic.value.DoubleValue
-2.534

@<SCITEGIC>MOL_PROPERTY
U
SciTegic.value.DoubleValue
51.184

@<SCITEGIC>MOL_PROPERTY
W
SciTegic.value.DoubleValue
-53.718

@<SCITEGIC>MOL_PROPERTY
W(PB)
SciTegic.value.DoubleValue
-56.008

@<SCITEGIC>MOL_PROPERTY
W(SA)
SciTegic.value.DoubleValue
2.290

@<SCITEGIC>MOL_PROPERTY
Valence
SciTegic.value.DoubleValue
5.187

@<SCITEGIC>MOL_PROPERTY
Coulomb
SciTegic.value.DoubleValue
45.355

@<SCITEGIC>MOL_PROPERTY
VdW
SciTegic.value.DoubleValue
0.642

@<SCITEGIC>MOL_PROPERTY
VdW6
SciTegic.value.DoubleValue
-7.428

@<SCITEGIC>MOL_PROPERTY
VdW12
SciTegic.value.DoubleValue
8.070

@<SCITEGIC>MOL_PROPERTY
Bond
SciTegic.value.DoubleValue
0.216

@<SCITEGIC>MOL_PROPERTY
Angle
SciTegic.value.DoubleValue
1.173

@<SCITEGIC>MOL_PROPERTY
Pdih
SciTegic.value.DoubleValue
3.799

@<SCITEGIC>MOL_PROPERTY
Idih
SciTegic.value.DoubleValue
0.000

@<SCITEGIC>MOL_PROPERTY
Tether
SciTegic.value.DoubleValue
0.000

@<TRIPOS>MOLECULE
guest-s14_vm2.mol2 : vm2 ligand conformer 103
          26          25           1
SMALL
USER_CHARGES
 
@<TRIPOS>ATOM
       1    C1      18.991362   17.965570   20.044791 C.3        1 MOL1        -0.2400
       2    H1      17.997752   18.241559   20.421311 H          1 MOL1         0.0971
       3    H2      19.180397   18.537780   19.127145 H          1 MOL1         0.0971
       4    H3      18.967139   16.900812   19.778838 H          1 MOL1         0.0971
       5    C2      20.080732   18.238304   21.103455 C.3        1 MOL1        -0.1385
       6    H4      21.055916   17.919984   20.709189 H          1 MOL1         0.0960
       7    H5      19.885550   17.619199   21.987237 H          1 MOL1         0.0960
       8    C3      20.141434   19.736897   21.486085 C.3        1 MOL1        -0.1409
       9    H6      20.372977   20.311157   20.578302 H          1 MOL1         0.0960
      10    H7      19.156004   20.087402   21.822509 H          1 MOL1         0.0960
      11    C4      21.216378   20.058115   22.557116 C.3        1 MOL1        -0.1409
      12    H8      21.650129   21.039998   22.322107 H          1 MOL1         0.0960
      13    H9      22.048561   19.343991   22.488539 H          1 MOL1         0.0960
      14    C5      20.684938   20.120145   24.012564 C.3        1 MOL1        -0.1409
      15    H10     21.513261   20.420637   24.669294 H          1 MOL1         0.0960
      16    H11     19.929358   20.914117   24.091693 H          1 MOL1         0.0960
      17    C6      20.089674   18.792200   24.532800 C.3        1 MOL1        -0.1450
      18    H12     20.809516   17.977403   24.378932 H          1 MOL1         0.0960
      19    H13     19.183103   18.543487   23.967047 H          1 MOL1         0.0960
      20    C7      19.733503   18.884965   26.026923 C.3        1 MOL1         0.0172
      21    H14     20.631297   19.118409   26.605648 H          1 MOL1         0.0934
      22    H15     19.005758   19.685938   26.182787 H          1 MOL1         0.0934
      23    N1      19.142979   17.602805   26.577266 N.4        1 MOL1        -0.5956
      24    H16     19.790949   16.813532   26.485821 H          1 MOL1         0.3624
      25    H17     18.277985   17.341443   26.092897 H          1 MOL1         0.3624
      26    H18     18.913471   17.686465   27.573640 H          1 MOL1         0.3624
@<TRIPOS>BOND
    1     1     2    1
    2     1     3    1
    3     1     4    1
    4     1     5    1
    5     5     6    1
    6     5     7    1
    7     5     8    1
    8     8     9    1
    9     8    10    1
   10     8    11    1
   11    11    12    1
   12    11    13    1
   13    11    14    1
   14    14    15    1
   15    14    16    1
   16    14    17    1
   17    17    18    1
   18    17    19    1
   19    17    20    1
   20    20    21    1
   21    20    22    1
   22    20    23    1
   23    23    24    1
   24    23    25    1
   25    23    26    1
@<TRIPOS>SUBSTRUCTURE
       1 MOL1            1 RESIDUE      1      MOL     
@<SCITEGIC>MOL_PROPERTY
VM2 Rank
SciTegic.value.IntegerValue
103

@<SCITEGIC>MOL_PROPERTY
Conf_Id
SciTegic.value.IntegerValue
732

@<SCITEGIC>MOL_PROPERTY
Probability
SciTegic.value.DoubleValue
0.03

@<SCITEGIC>MOL_PROPERTY
Sum Probability
SciTegic.value.DoubleValue
99.21

@<SCITEGIC>MOL_PROPERTY
Delta G
SciTegic.value.DoubleValue
3.395

@<SCITEGIC>MOL_PROPERTY
G
SciTegic.value.DoubleValue
51.657

@<SCITEGIC>MOL_PROPERTY
E
SciTegic.value.DoubleValue
18.929

@<SCITEGIC>MOL_PROPERTY
-TS
SciTegic.value.DoubleValue
32.728

@<SCITEGIC>MOL_PROPERTY
U+W
SciTegic.value.DoubleValue
-2.533

@<SCITEGIC>MOL_PROPERTY
U
SciTegic.value.DoubleValue
51.184

@<SCITEGIC>MOL_PROPERTY
W
SciTegic.value.DoubleValue
-53.717

@<SCITEGIC>MOL_PROPERTY
W(PB)
SciTegic.value.DoubleValue
-56.005

@<SCITEGIC>MOL_PROPERTY
W(SA)
SciTegic.value.DoubleValue
2.288

@<SCITEGIC>MOL_PROPERTY
Valence
SciTegic.value.DoubleValue
5.187

@<SCITEGIC>MOL_PROPERTY
Coulomb
SciTegic.value.DoubleValue
45.354

@<SCITEGIC>MOL_PROPERTY
VdW
SciTegic.value.DoubleValue
0.642

@<SCITEGIC>MOL_PROPERTY
VdW6
SciTegic.value.DoubleValue
-7.428

@<SCITEGIC>MOL_PROPERTY
VdW12
SciTegic.value.DoubleValue
8.069

@<SCITEGIC>MOL_PROPERTY
Bond
SciTegic.value.DoubleValue
0.216

@<SCITEGIC>MOL_PROPERTY
Angle
SciTegic.value.DoubleValue
1.173

@<SCITEGIC>MOL_PROPERTY
Pdih
SciTegic.value.DoubleValue
3.799

@<SCITEGIC>MOL_PROPERTY
Idih
SciTegic.value.DoubleValue
0.000

@<SCITEGIC>MOL_PROPERTY
Tether
SciTegic.value.DoubleValue
0.000

@<TRIPOS>MOLECULE
guest-s14_vm2.mol2 : vm2 ligand conformer 104
          26          25           1
SMALL
USER_CHARGES
 
@<TRIPOS>ATOM
       1    C1      20.475702   19.268018   19.365641 C.3        1 MOL1        -0.2400
       2    H1      21.064267   18.396193   19.051434 H          1 MOL1         0.0971
       3    H2      19.453878   19.146745   18.983012 H          1 MOL1         0.0971
       4    H3      20.910407   20.156810   18.890130 H          1 MOL1         0.0971
       5    C2      20.478459   19.415569   20.902003 C.3        1 MOL1        -0.1385
       6    H4      19.915502   20.318219   21.174564 H          1 MOL1         0.0960
       7    H5      21.509530   19.565130   21.251588 H          1 MOL1         0.0960
       8    C3      19.866290   18.175351   21.595020 C.3        1 MOL1        -0.1409
       9    H6      18.820607   18.053895   21.280260 H          1 MOL1         0.0960
      10    H7      20.396926   17.276074   21.252862 H          1 MOL1         0.0960
      11    C4      19.940324   18.232101   23.140569 C.3        1 MOL1        -0.1409
      12    H8      20.991692   18.324390   23.440101 H          1 MOL1         0.0960
      13    H9      19.575879   17.276071   23.541099 H          1 MOL1         0.0960
      14    C5      19.111965   19.389623   23.752006 C.3        1 MOL1        -0.1409
      15    H10     19.576120   20.353084   23.502414 H          1 MOL1         0.0960
      16    H11     18.116150   19.397713   23.287737 H          1 MOL1         0.0960
      17    C6      18.927222   19.300416   25.288482 C.3        1 MOL1        -0.1450
      18    H12     18.417485   18.366306   25.559503 H          1 MOL1         0.0960
      19    H13     18.252512   20.111179   25.593909 H          1 MOL1         0.0960
      20    C7      20.231984   19.445638   26.098976 C.3        1 MOL1         0.0172
      21    H14     20.857375   20.226812   25.658592 H          1 MOL1         0.0934
      22    H15     19.984395   19.745642   27.120834 H          1 MOL1         0.0934
      23    N1      21.049054   18.172283   26.198303 N.4        1 MOL1        -0.5956
      24    H16     21.906182   18.312313   26.744300 H          1 MOL1         0.3624
      25    H17     21.330666   17.828728   25.275997 H          1 MOL1         0.3624
      26    H18     20.523941   17.419486   26.655037 H          1 MOL1         0.3624
@<TRIPOS>BOND
    1     1     2    1
    2     1     3    1
    3     1     4    1
    4     1     5    1
    5     5     6    1
    6     5     7    1
    7     5     8    1
    8     8     9    1
    9     8    10    1
   10     8    11    1
   11    11    12    1
   12    11    13    1
   13    11    14    1
   14    14    15    1
   15    14    16    1
   16    14    17    1
   17    17    18    1
   18    17    19    1
   19    17    20    1
   20    20    21    1
   21    20    22    1
   22    20    23    1
   23    23    24    1
   24    23    25    1
   25    23    26    1
@<TRIPOS>SUBSTRUCTURE
       1 MOL1            1 RESIDUE      1      MOL     
@<SCITEGIC>MOL_PROPERTY
VM2 Rank
SciTegic.value.IntegerValue
104

@<SCITEGIC>MOL_PROPERTY
Conf_Id
SciTegic.value.IntegerValue
1366

@<SCITEGIC>MOL_PROPERTY
Probability
SciTegic.value.DoubleValue
0.03

@<SCITEGIC>MOL_PROPERTY
Sum Probability
SciTegic.value.DoubleValue
99.23

@<SCITEGIC>MOL_PROPERTY
Delta G
SciTegic.value.DoubleValue
3.413

@<SCITEGIC>MOL_PROPERTY
G
SciTegic.value.DoubleValue
51.675

@<SCITEGIC>MOL_PROPERTY
E
SciTegic.value.DoubleValue
19.033

@<SCITEGIC>MOL_PROPERTY
-TS
SciTegic.value.DoubleValue
32.642

@<SCITEGIC>MOL_PROPERTY
U+W
SciTegic.value.DoubleValue
-2.429

@<SCITEGIC>MOL_PROPERTY
U
SciTegic.value.DoubleValue
51.400

@<SCITEGIC>MOL_PROPERTY
W
SciTegic.value.DoubleValue
-53.829

@<SCITEGIC>MOL_PROPERTY
W(PB)
SciTegic.value.DoubleValue
-56.113

@<SCITEGIC>MOL_PROPERTY
W(SA)
SciTegic.value.DoubleValue
2.284

@<SCITEGIC>MOL_PROPERTY
Valence
SciTegic.value.DoubleValue
4.232

@<SCITEGIC>MOL_PROPERTY
Coulomb
SciTegic.value.DoubleValue
46.515

@<SCITEGIC>MOL_PROPERTY
VdW
SciTegic.value.DoubleValue
0.653

@<SCITEGIC>MOL_PROPERTY
VdW6
SciTegic.value.DoubleValue
-7.962

@<SCITEGIC>MOL_PROPERTY
VdW12
SciTegic.value.DoubleValue
8.616

@<SCITEGIC>MOL_PROPERTY
Bond
SciTegic.value.DoubleValue
0.225

@<SCITEGIC>MOL_PROPERTY
Angle
SciTegic.value.DoubleValue
1.150

@<SCITEGIC>MOL_PROPERTY
Pdih
SciTegic.value.DoubleValue
2.857

@<SCITEGIC>MOL_PROPERTY
Idih
SciTegic.value.DoubleValue
0.000

@<SCITEGIC>MOL_PROPERTY
Tether
SciTegic.value.DoubleValue
0.000

@<TRIPOS>MOLECULE
guest-s14_vm2.mol2 : vm2 ligand conformer 105
          26          25           1
SMALL
USER_CHARGES
 
@<TRIPOS>ATOM
       1    C1      21.275262   19.649800   19.981326 C.3        1 MOL1        -0.2400
       2    H1      21.139791   18.922410   19.170296 H          1 MOL1         0.0971
       3    H2      20.748877   20.572606   19.704571 H          1 MOL1         0.0971
       4    H3      22.346206   19.880548   20.050966 H          1 MOL1         0.0971
       5    C2      20.749740   19.092326   21.321205 C.3        1 MOL1        -0.1385
       6    H4      20.938280   19.832526   22.109851 H          1 MOL1         0.0960
       7    H5      21.312141   18.185706   21.584412 H          1 MOL1         0.0960
       8    C3      19.239465   18.770626   21.251831 C.3        1 MOL1        -0.1409
       9    H6      18.676852   19.698050   21.076911 H          1 MOL1         0.0960
      10    H7      19.051196   18.130606   20.378756 H          1 MOL1         0.0960
      11    C4      18.676879   18.055762   22.507623 C.3        1 MOL1        -0.1409
      12    H8      19.158017   17.075802   22.631658 H          1 MOL1         0.0960
      13    H9      17.616050   17.841541   22.317314 H          1 MOL1         0.0960
      14    C5      18.775421   18.875062   23.820977 C.3        1 MOL1        -0.1409
      15    H10     18.750702   19.950811   23.598154 H          1 MOL1         0.0960
      16    H11     17.881221   18.670662   24.426299 H          1 MOL1         0.0960
      17    C6      20.020531   18.528063   24.672082 C.3        1 MOL1        -0.1450
      18    H12     20.939419   18.690354   24.097586 H          1 MOL1         0.0960
      19    H13     19.996932   17.462990   24.938536 H          1 MOL1         0.0960
      20    C7      20.072231   19.371810   25.957852 C.3        1 MOL1         0.0172
      21    H14     20.113051   20.433535   25.699918 H          1 MOL1         0.0934
      22    H15     19.170019   19.196085   26.549967 H          1 MOL1         0.0934
      23    N1      21.271472   19.055550   26.828104 N.4        1 MOL1        -0.5956
      24    H16     22.155571   19.227261   26.338193 H          1 MOL1         0.3624
      25    H17     21.277849   18.075199   27.128265 H          1 MOL1         0.3624
      26    H18     21.285780   19.628144   27.679202 H          1 MOL1         0.3624
@<TRIPOS>BOND
    1     1     2    1
    2     1     3    1
    3     1     4    1
    4     1     5    1
    5     5     6    1
    6     5     7    1
    7     5     8    1
    8     8     9    1
    9     8    10    1
   10     8    11    1
   11    11    12    1
   12    11    13    1
   13    11    14    1
   14    14    15    1
   15    14    16    1
   16    14    17    1
   17    17    18    1
   18    17    19    1
   19    17    20    1
   20    20    21    1
   21    20    22    1
   22    20    23    1
   23    23    24    1
   24    23    25    1
   25    23    26    1
@<TRIPOS>SUBSTRUCTURE
       1 MOL1            1 RESIDUE      1      MOL     
@<SCITEGIC>MOL_PROPERTY
VM2 Rank
SciTegic.value.IntegerValue
105

@<SCITEGIC>MOL_PROPERTY
Conf_Id
SciTegic.value.IntegerValue
455

@<SCITEGIC>MOL_PROPERTY
Probability
SciTegic.value.DoubleValue
0.02

@<SCITEGIC>MOL_PROPERTY
Sum Probability
SciTegic.value.DoubleValue
99.26

@<SCITEGIC>MOL_PROPERTY
Delta G
SciTegic.value.DoubleValue
3.421

@<SCITEGIC>MOL_PROPERTY
G
SciTegic.value.DoubleValue
51.682

@<SCITEGIC>MOL_PROPERTY
E
SciTegic.value.DoubleValue
18.960

@<SCITEGIC>MOL_PROPERTY
-TS
SciTegic.value.DoubleValue
32.722

@<SCITEGIC>MOL_PROPERTY
U+W
SciTegic.value.DoubleValue
-2.502

@<SCITEGIC>MOL_PROPERTY
U
SciTegic.value.DoubleValue
51.214

@<SCITEGIC>MOL_PROPERTY
W
SciTegic.value.DoubleValue
-53.716

@<SCITEGIC>MOL_PROPERTY
W(PB)
SciTegic.value.DoubleValue
-56.009

@<SCITEGIC>MOL_PROPERTY
W(SA)
SciTegic.value.DoubleValue
2.294

@<SCITEGIC>MOL_PROPERTY
Valence
SciTegic.value.DoubleValue
5.193

@<SCITEGIC>MOL_PROPERTY
Coulomb
SciTegic.value.DoubleValue
45.364

@<SCITEGIC>MOL_PROPERTY
VdW
SciTegic.value.DoubleValue
0.656

@<SCITEGIC>MOL_PROPERTY
VdW6
SciTegic.value.DoubleValue
-7.405

@<SCITEGIC>MOL_PROPERTY
VdW12
SciTegic.value.DoubleValue
8.062

@<SCITEGIC>MOL_PROPERTY
Bond
SciTegic.value.DoubleValue
0.216

@<SCITEGIC>MOL_PROPERTY
Angle
SciTegic.value.DoubleValue
1.176

@<SCITEGIC>MOL_PROPERTY
Pdih
SciTegic.value.DoubleValue
3.800

@<SCITEGIC>MOL_PROPERTY
Idih
SciTegic.value.DoubleValue
0.000

@<SCITEGIC>MOL_PROPERTY
Tether
SciTegic.value.DoubleValue
0.000

@<TRIPOS>MOLECULE
guest-s14_vm2.mol2 : vm2 ligand conformer 106
          26          25           1
SMALL
USER_CHARGES
 
@<TRIPOS>ATOM
       1    C1      20.026187   17.912711   20.001980 C.3        1 MOL1        -0.2400
       2    H1      21.104575   18.109976   20.045275 H          1 MOL1         0.0971
       3    H2      19.830396   16.957959   20.507075 H          1 MOL1         0.0971
       4    H3      19.753871   17.795584   18.945080 H          1 MOL1         0.0971
       5    C2      19.214098   19.059009   20.646297 C.3        1 MOL1        -0.1385
       6    H4      18.143797   18.873365   20.479693 H          1 MOL1         0.0960
       7    H5      19.444429   20.005805   20.138093 H          1 MOL1         0.0960
       8    C3      19.463015   19.206544   22.166666 C.3        1 MOL1        -0.1409
       9    H6      18.784080   19.975828   22.559421 H          1 MOL1         0.0960
      10    H7      19.197058   18.263661   22.661414 H          1 MOL1         0.0960
      11    C4      20.923118   19.588389   22.513426 C.3        1 MOL1        -0.1409
      12    H8      21.238421   20.416079   21.863289 H          1 MOL1         0.0960
      13    H9      21.590364   18.746989   22.283689 H          1 MOL1         0.0960
      14    C5      21.141650   20.021159   23.986468 C.3        1 MOL1        -0.1409
      15    H10     22.193448   20.321781   24.090376 H          1 MOL1         0.0960
      16    H11     20.552054   20.921682   24.207783 H          1 MOL1         0.0960
      17    C6      20.849181   18.922640   25.039506 C.3        1 MOL1        -0.1450
      18    H12     21.455113   19.125521   25.932638 H          1 MOL1         0.0960
      19    H13     21.171211   17.942942   24.662204 H          1 MOL1         0.0960
      20    C7      19.369544   18.871799   25.467441 C.3        1 MOL1         0.0172
      21    H14     19.074032   19.840947   25.878277 H          1 MOL1         0.0934
      22    H15     18.733106   18.658104   24.606923 H          1 MOL1         0.0934
      23    N1      19.094207   17.816748   26.519217 N.4        1 MOL1        -0.5956
      24    H16     18.106017   17.801301   26.794138 H          1 MOL1         0.3624
      25    H17     19.638630   17.977527   27.372991 H          1 MOL1         0.3624
      26    H18     19.326432   16.875317   26.186224 H          1 MOL1         0.3624
@<TRIPOS>BOND
    1     1     2    1
    2     1     3    1
    3     1     4    1
    4     1     5    1
    5     5     6    1
    6     5     7    1
    7     5     8    1
    8     8     9    1
    9     8    10    1
   10     8    11    1
   11    11    12    1
   12    11    13    1
   13    11    14    1
   14    14    15    1
   15    14    16    1
   16    14    17    1
   17    17    18    1
   18    17    19    1
   19    17    20    1
   20    20    21    1
   21    20    22    1
   22    20    23    1
   23    23    24    1
   24    23    25    1
   25    23    26    1
@<TRIPOS>SUBSTRUCTURE
       1 MOL1            1 RESIDUE      1      MOL     
@<SCITEGIC>MOL_PROPERTY
VM2 Rank
SciTegic.value.IntegerValue
106

@<SCITEGIC>MOL_PROPERTY
Conf_Id
SciTegic.value.IntegerValue
454

@<SCITEGIC>MOL_PROPERTY
Probability
SciTegic.value.DoubleValue
0.02

@<SCITEGIC>MOL_PROPERTY
Sum Probability
SciTegic.value.DoubleValue
99.28

@<SCITEGIC>MOL_PROPERTY
Delta G
SciTegic.value.DoubleValue
3.436

@<SCITEGIC>MOL_PROPERTY
G
SciTegic.value.DoubleValue
51.697

@<SCITEGIC>MOL_PROPERTY
E
SciTegic.value.DoubleValue
18.882

@<SCITEGIC>MOL_PROPERTY
-TS
SciTegic.value.DoubleValue
32.815

@<SCITEGIC>MOL_PROPERTY
U+W
SciTegic.value.DoubleValue
-2.580

@<SCITEGIC>MOL_PROPERTY
U
SciTegic.value.DoubleValue
51.328

@<SCITEGIC>MOL_PROPERTY
W
SciTegic.value.DoubleValue
-53.907

@<SCITEGIC>MOL_PROPERTY
W(PB)
SciTegic.value.DoubleValue
-56.205

@<SCITEGIC>MOL_PROPERTY
W(SA)
SciTegic.value.DoubleValue
2.297

@<SCITEGIC>MOL_PROPERTY
Valence
SciTegic.value.DoubleValue
4.992

@<SCITEGIC>MOL_PROPERTY
Coulomb
SciTegic.value.DoubleValue
45.664

@<SCITEGIC>MOL_PROPERTY
VdW
SciTegic.value.DoubleValue
0.672

@<SCITEGIC>MOL_PROPERTY
VdW6
SciTegic.value.DoubleValue
-8.114

@<SCITEGIC>MOL_PROPERTY
VdW12
SciTegic.value.DoubleValue
8.785

@<SCITEGIC>MOL_PROPERTY
Bond
SciTegic.value.DoubleValue
0.231

@<SCITEGIC>MOL_PROPERTY
Angle
SciTegic.value.DoubleValue
1.333

@<SCITEGIC>MOL_PROPERTY
Pdih
SciTegic.value.DoubleValue
3.427

@<SCITEGIC>MOL_PROPERTY
Idih
SciTegic.value.DoubleValue
0.000

@<SCITEGIC>MOL_PROPERTY
Tether
SciTegic.value.DoubleValue
0.000

@<TRIPOS>MOLECULE
guest-s14_vm2.mol2 : vm2 ligand conformer 107
          26          25           1
SMALL
USER_CHARGES
 
@<TRIPOS>ATOM
       1    C1      19.972634   18.963716   19.227420 C.3        1 MOL1        -0.2400
       2    H1      19.336348   19.846745   19.083742 H          1 MOL1         0.0971
       3    H2      20.823609   19.045822   18.538840 H          1 MOL1         0.0971
       4    H3      19.393952   18.075232   18.942912 H          1 MOL1         0.0971
       5    C2      20.461221   18.864319   20.688170 C.3        1 MOL1        -0.1385
       6    H4      21.069528   19.748319   20.919483 H          1 MOL1         0.0960
       7    H5      21.117671   17.989268   20.793240 H          1 MOL1         0.0960
       8    C3      19.277369   18.751429   21.678140 C.3        1 MOL1        -0.1409
       9    H6      18.649800   19.650913   21.611918 H          1 MOL1         0.0960
      10    H7      18.640823   17.909441   21.372743 H          1 MOL1         0.0960
      11    C4      19.711839   18.526556   23.147665 C.3        1 MOL1        -0.1409
      12    H8      20.365358   17.645280   23.206598 H          1 MOL1         0.0960
      13    H9      18.810119   18.293558   23.726610 H          1 MOL1         0.0960
      14    C5      20.418359   19.752677   23.778894 C.3        1 MOL1        -0.1409
      15    H10     21.268278   20.049554   23.151828 H          1 MOL1         0.0960
      16    H11     19.728977   20.608216   23.785804 H          1 MOL1         0.0960
      17    C6      20.955876   19.513264   25.213203 C.3        1 MOL1        -0.1450
      18    H12     21.499344   20.415886   25.522712 H          1 MOL1         0.0960
      19    H13     21.695715   18.701776   25.213791 H          1 MOL1         0.0960
      20    C7      19.866557   19.236922   26.270289 C.3        1 MOL1         0.0172
      21    H14     20.257021   19.494183   27.258648 H          1 MOL1         0.0934
      22    H15     18.993019   19.865293   26.076955 H          1 MOL1         0.0934
      23    N1      19.417146   17.790117   26.337219 N.4        1 MOL1        -0.5956
      24    H16     20.192913   17.162704   26.573073 H          1 MOL1         0.3624
      25    H17     19.029804   17.469764   25.445387 H          1 MOL1         0.3624
      26    H18     18.692751   17.649772   27.049935 H          1 MOL1         0.3624
@<TRIPOS>BOND
    1     1     2    1
    2     1     3    1
    3     1     4    1
    4     1     5    1
    5     5     6    1
    6     5     7    1
    7     5     8    1
    8     8     9    1
    9     8    10    1
   10     8    11    1
   11    11    12    1
   12    11    13    1
   13    11    14    1
   14    14    15    1
   15    14    16    1
   16    14    17    1
   17    17    18    1
   18    17    19    1
   19    17    20    1
   20    20    21    1
   21    20    22    1
   22    20    23    1
   23    23    24    1
   24    23    25    1
   25    23    26    1
@<TRIPOS>SUBSTRUCTURE
       1 MOL1            1 RESIDUE      1      MOL     
@<SCITEGIC>MOL_PROPERTY
VM2 Rank
SciTegic.value.IntegerValue
107

@<SCITEGIC>MOL_PROPERTY
Conf_Id
SciTegic.value.IntegerValue
1002

@<SCITEGIC>MOL_PROPERTY
Probability
SciTegic.value.DoubleValue
0.02

@<SCITEGIC>MOL_PROPERTY
Sum Probability
SciTegic.value.DoubleValue
99.31

@<SCITEGIC>MOL_PROPERTY
Delta G
SciTegic.value.DoubleValue
3.447

@<SCITEGIC>MOL_PROPERTY
G
SciTegic.value.DoubleValue
51.709

@<SCITEGIC>MOL_PROPERTY
E
SciTegic.value.DoubleValue
19.202

@<SCITEGIC>MOL_PROPERTY
-TS
SciTegic.value.DoubleValue
32.507

@<SCITEGIC>MOL_PROPERTY
U+W
SciTegic.value.DoubleValue
-2.260

@<SCITEGIC>MOL_PROPERTY
U
SciTegic.value.DoubleValue
51.605

@<SCITEGIC>MOL_PROPERTY
W
SciTegic.value.DoubleValue
-53.865

@<SCITEGIC>MOL_PROPERTY
W(PB)
SciTegic.value.DoubleValue
-56.157

@<SCITEGIC>MOL_PROPERTY
W(SA)
SciTegic.value.DoubleValue
2.292

@<SCITEGIC>MOL_PROPERTY
Valence
SciTegic.value.DoubleValue
4.451

@<SCITEGIC>MOL_PROPERTY
Coulomb
SciTegic.value.DoubleValue
46.418

@<SCITEGIC>MOL_PROPERTY
VdW
SciTegic.value.DoubleValue
0.736

@<SCITEGIC>MOL_PROPERTY
VdW6
SciTegic.value.DoubleValue
-7.820

@<SCITEGIC>MOL_PROPERTY
VdW12
SciTegic.value.DoubleValue
8.556

@<SCITEGIC>MOL_PROPERTY
Bond
SciTegic.value.DoubleValue
0.235

@<SCITEGIC>MOL_PROPERTY
Angle
SciTegic.value.DoubleValue
1.295

@<SCITEGIC>MOL_PROPERTY
Pdih
SciTegic.value.DoubleValue
2.922

@<SCITEGIC>MOL_PROPERTY
Idih
SciTegic.value.DoubleValue
0.000

@<SCITEGIC>MOL_PROPERTY
Tether
SciTegic.value.DoubleValue
0.000

@<TRIPOS>MOLECULE
guest-s14_vm2.mol2 : vm2 ligand conformer 108
          26          25           1
SMALL
USER_CHARGES
 
@<TRIPOS>ATOM
       1    C1      20.027613   17.656129   20.149635 C.3        1 MOL1        -0.2400
       2    H1      19.991095   16.968694   21.003718 H          1 MOL1         0.0971
       3    H2      18.998109   17.863115   19.829773 H          1 MOL1         0.0971
       4    H3      20.535750   17.134566   19.328232 H          1 MOL1         0.0971
       5    C2      20.772964   18.963083   20.503330 C.3        1 MOL1        -0.1385
       6    H4      20.890323   19.562126   19.589453 H          1 MOL1         0.0960
       7    H5      21.789300   18.727129   20.848436 H          1 MOL1         0.0960
       8    C3      20.043773   19.818680   21.567299 C.3        1 MOL1        -0.1409
       9    H6      20.582757   20.769622   21.679637 H          1 MOL1         0.0960
      10    H7      19.038287   20.074094   21.205308 H          1 MOL1         0.0960
      11    C4      19.942475   19.129009   22.948859 C.3        1 MOL1        -0.1409
      12    H8      20.948527   18.828900   23.266419 H          1 MOL1         0.0960
      13    H9      19.335547   18.217874   22.866053 H          1 MOL1         0.0960
      14    C5      19.315796   20.064998   24.009350 C.3        1 MOL1        -0.1409
      15    H10     19.981369   20.922307   24.181029 H          1 MOL1         0.0960
      16    H11     18.380062   20.479292   23.609081 H          1 MOL1         0.0960
      17    C6      18.998947   19.379318   25.363062 C.3        1 MOL1        -0.1450
      18    H12     18.283688   18.558808   25.218020 H          1 MOL1         0.0960
      19    H13     18.489395   20.113739   26.000897 H          1 MOL1         0.0960
      20    C7      20.237853   18.871157   26.129379 C.3        1 MOL1         0.0172
      21    H14     21.052557   19.594687   26.039603 H          1 MOL1         0.0934
      22    H15     19.985755   18.774333   27.188893 H          1 MOL1         0.0934
      23    N1      20.741579   17.516625   25.670087 N.4        1 MOL1        -0.5956
      24    H16     21.565616   17.217147   26.202732 H          1 MOL1         0.3624
      25    H17     21.006848   17.524965   24.681327 H          1 MOL1         0.3624
      26    H18     20.029861   16.788016   25.787023 H          1 MOL1         0.3624
@<TRIPOS>BOND
    1     1     2    1
    2     1     3    1
    3     1     4    1
    4     1     5    1
    5     5     6    1
    6     5     7    1
    7     5     8    1
    8     8     9    1
    9     8    10    1
   10     8    11    1
   11    11    12    1
   12    11    13    1
   13    11    14    1
   14    14    15    1
   15    14    16    1
   16    14    17    1
   17    17    18    1
   18    17    19    1
   19    17    20    1
   20    20    21    1
   21    20    22    1
   22    20    23    1
   23    23    24    1
   24    23    25    1
   25    23    26    1
@<TRIPOS>SUBSTRUCTURE
       1 MOL1            1 RESIDUE      1      MOL     
@<SCITEGIC>MOL_PROPERTY
VM2 Rank
SciTegic.value.IntegerValue
108

@<SCITEGIC>MOL_PROPERTY
Conf_Id
SciTegic.value.IntegerValue
1306

@<SCITEGIC>MOL_PROPERTY
Probability
SciTegic.value.DoubleValue
0.02

@<SCITEGIC>MOL_PROPERTY
Sum Probability
SciTegic.value.DoubleValue
99.33

@<SCITEGIC>MOL_PROPERTY
Delta G
SciTegic.value.DoubleValue
3.492

@<SCITEGIC>MOL_PROPERTY
G
SciTegic.value.DoubleValue
51.754

@<SCITEGIC>MOL_PROPERTY
E
SciTegic.value.DoubleValue
19.125

@<SCITEGIC>MOL_PROPERTY
-TS
SciTegic.value.DoubleValue
32.628

@<SCITEGIC>MOL_PROPERTY
U+W
SciTegic.value.DoubleValue
-2.336

@<SCITEGIC>MOL_PROPERTY
U
SciTegic.value.DoubleValue
51.553

@<SCITEGIC>MOL_PROPERTY
W
SciTegic.value.DoubleValue
-53.890

@<SCITEGIC>MOL_PROPERTY
W(PB)
SciTegic.value.DoubleValue
-56.153

@<SCITEGIC>MOL_PROPERTY
W(SA)
SciTegic.value.DoubleValue
2.263

@<SCITEGIC>MOL_PROPERTY
Valence
SciTegic.value.DoubleValue
4.248

@<SCITEGIC>MOL_PROPERTY
Coulomb
SciTegic.value.DoubleValue
46.644

@<SCITEGIC>MOL_PROPERTY
VdW
SciTegic.value.DoubleValue
0.661

@<SCITEGIC>MOL_PROPERTY
VdW6
SciTegic.value.DoubleValue
-7.942

@<SCITEGIC>MOL_PROPERTY
VdW12
SciTegic.value.DoubleValue
8.602

@<SCITEGIC>MOL_PROPERTY
Bond
SciTegic.value.DoubleValue
0.222

@<SCITEGIC>MOL_PROPERTY
Angle
SciTegic.value.DoubleValue
1.190

@<SCITEGIC>MOL_PROPERTY
Pdih
SciTegic.value.DoubleValue
2.837

@<SCITEGIC>MOL_PROPERTY
Idih
SciTegic.value.DoubleValue
0.000

@<SCITEGIC>MOL_PROPERTY
Tether
SciTegic.value.DoubleValue
0.000

@<TRIPOS>MOLECULE
guest-s14_vm2.mol2 : vm2 ligand conformer 109
          26          25           1
SMALL
USER_CHARGES
 
@<TRIPOS>ATOM
       1    C1      18.990712   19.925025   20.663672 C.3        1 MOL1        -0.2400
       2    H1      19.363403   20.853349   21.115514 H          1 MOL1         0.0971
       3    H2      18.377830   20.196831   19.794554 H          1 MOL1         0.0971
       4    H3      18.332517   19.424072   21.384126 H          1 MOL1         0.0971
       5    C2      20.155779   19.006248   20.235815 C.3        1 MOL1        -0.1385
       6    H4      20.684115   19.476329   19.394601 H          1 MOL1         0.0960
       7    H5      19.750841   18.060291   19.849926 H          1 MOL1         0.0960
       8    C3      21.183424   18.712014   21.358406 C.3        1 MOL1        -0.1409
       9    H6      21.982142   18.096798   20.921425 H          1 MOL1         0.0960
      10    H7      21.669734   19.643640   21.678762 H          1 MOL1         0.0960
      11    C4      20.607397   17.955431   22.583799 C.3        1 MOL1        -0.1409
      12    H8      21.378570   17.270485   22.962714 H          1 MOL1         0.0960
      13    H9      19.765236   17.322060   22.272785 H          1 MOL1         0.0960
      14    C5      20.182796   18.890787   23.742433 C.3        1 MOL1        -0.1409
      15    H10     21.053516   19.474892   24.068648 H          1 MOL1         0.0960
      16    H11     19.433033   19.612314   23.396818 H          1 MOL1         0.0960
      17    C6      19.609235   18.094897   24.938564 C.3        1 MOL1        -0.1450
      18    H12     20.364042   17.396058   25.323072 H          1 MOL1         0.0960
      19    H13     18.762736   17.484774   24.596311 H          1 MOL1         0.0960
      20    C7      19.122180   19.006219   26.081625 C.3        1 MOL1         0.0172
      21    H14     18.374925   19.707453   25.700463 H          1 MOL1         0.0934
      22    H15     18.652168   18.395339   26.857172 H          1 MOL1         0.0934
      23    N1      20.229478   19.808378   26.736686 N.4        1 MOL1        -0.5956
      24    H16     19.874618   20.393887   27.500598 H          1 MOL1         0.3624
      25    H17     20.691373   20.433623   26.069148 H          1 MOL1         0.3624
      26    H18     20.953624   19.202244   27.135726 H          1 MOL1         0.3624
@<TRIPOS>BOND
    1     1     2    1
    2     1     3    1
    3     1     4    1
    4     1     5    1
    5     5     6    1
    6     5     7    1
    7     5     8    1
    8     8     9    1
    9     8    10    1
   10     8    11    1
   11    11    12    1
   12    11    13    1
   13    11    14    1
   14    14    15    1
   15    14    16    1
   16    14    17    1
   17    17    18    1
   18    17    19    1
   19    17    20    1
   20    20    21    1
   21    20    22    1
   22    20    23    1
   23    23    24    1
   24    23    25    1
   25    23    26    1
@<TRIPOS>SUBSTRUCTURE
       1 MOL1            1 RESIDUE      1      MOL     
@<SCITEGIC>MOL_PROPERTY
VM2 Rank
SciTegic.value.IntegerValue
109

@<SCITEGIC>MOL_PROPERTY
Conf_Id
SciTegic.value.IntegerValue
804

@<SCITEGIC>MOL_PROPERTY
Probability
SciTegic.value.DoubleValue
0.02

@<SCITEGIC>MOL_PROPERTY
Sum Probability
SciTegic.value.DoubleValue
99.35

@<SCITEGIC>MOL_PROPERTY
Delta G
SciTegic.value.DoubleValue
3.526

@<SCITEGIC>MOL_PROPERTY
G
SciTegic.value.DoubleValue
51.788

@<SCITEGIC>MOL_PROPERTY
E
SciTegic.value.DoubleValue
18.982

@<SCITEGIC>MOL_PROPERTY
-TS
SciTegic.value.DoubleValue
32.805

@<SCITEGIC>MOL_PROPERTY
U+W
SciTegic.value.DoubleValue
-2.480

@<SCITEGIC>MOL_PROPERTY
U
SciTegic.value.DoubleValue
51.297

@<SCITEGIC>MOL_PROPERTY
W
SciTegic.value.DoubleValue
-53.776

@<SCITEGIC>MOL_PROPERTY
W(PB)
SciTegic.value.DoubleValue
-56.033

@<SCITEGIC>MOL_PROPERTY
W(SA)
SciTegic.value.DoubleValue
2.257

@<SCITEGIC>MOL_PROPERTY
Valence
SciTegic.value.DoubleValue
5.228

@<SCITEGIC>MOL_PROPERTY
Coulomb
SciTegic.value.DoubleValue
45.276

@<SCITEGIC>MOL_PROPERTY
VdW
SciTegic.value.DoubleValue
0.793

@<SCITEGIC>MOL_PROPERTY
VdW6
SciTegic.value.DoubleValue
-7.860

@<SCITEGIC>MOL_PROPERTY
VdW12
SciTegic.value.DoubleValue
8.653

@<SCITEGIC>MOL_PROPERTY
Bond
SciTegic.value.DoubleValue
0.234

@<SCITEGIC>MOL_PROPERTY
Angle
SciTegic.value.DoubleValue
1.197

@<SCITEGIC>MOL_PROPERTY
Pdih
SciTegic.value.DoubleValue
3.797

@<SCITEGIC>MOL_PROPERTY
Idih
SciTegic.value.DoubleValue
0.000

@<SCITEGIC>MOL_PROPERTY
Tether
SciTegic.value.DoubleValue
0.000

@<TRIPOS>MOLECULE
guest-s14_vm2.mol2 : vm2 ligand conformer 110
          26          25           1
SMALL
USER_CHARGES
 
@<TRIPOS>ATOM
       1    C1      21.314253   18.503825   20.192462 C.3        1 MOL1        -0.2400
       2    H1      21.544267   19.540601   19.914571 H          1 MOL1         0.0971
       3    H2      21.920090   18.239603   21.067965 H          1 MOL1         0.0971
       4    H3      21.631270   17.856335   19.364698 H          1 MOL1         0.0971
       5    C2      19.804531   18.325107   20.470979 C.3        1 MOL1        -0.1385
       6    H4      19.605099   17.288189   20.775509 H          1 MOL1         0.0960
       7    H5      19.250809   18.482081   19.534737 H          1 MOL1         0.0960
       8    C3      19.256581   19.300063   21.541028 C.3        1 MOL1        -0.1409
       9    H6      19.434726   20.335223   21.218565 H          1 MOL1         0.0960
      10    H7      18.166144   19.177589   21.598990 H          1 MOL1         0.0960
      11    C4      19.865371   19.078152   22.946284 C.3        1 MOL1        -0.1409
      12    H8      20.944644   19.277772   22.919751 H          1 MOL1         0.0960
      13    H9      19.730055   18.026186   23.225762 H          1 MOL1         0.0960
      14    C5      19.203459   19.990945   24.005589 C.3        1 MOL1        -0.1409
      15    H10     19.210115   21.026014   23.636752 H          1 MOL1         0.0960
      16    H11     18.146378   19.713493   24.119787 H          1 MOL1         0.0960
      17    C6      19.894740   19.969375   25.392942 C.3        1 MOL1        -0.1450
      18    H12     19.391490   20.707978   26.030950 H          1 MOL1         0.0960
      19    H13     20.936384   20.306088   25.306510 H          1 MOL1         0.0960
      20    C7      19.837770   18.607693   26.116081 C.3        1 MOL1         0.0172
      21    H14     19.976625   18.768440   27.188637 H          1 MOL1         0.0934
      22    H15     18.856925   18.148533   25.966384 H          1 MOL1         0.0934
      23    N1      20.904296   17.623841   25.675635 N.4        1 MOL1        -0.5956
      24    H16     20.830005   16.732691   26.178395 H          1 MOL1         0.3624
      25    H17     21.847991   17.985645   25.847753 H          1 MOL1         0.3624
      26    H18     20.838143   17.413803   24.675840 H          1 MOL1         0.3624
@<TRIPOS>BOND
    1     1     2    1
    2     1     3    1
    3     1     4    1
    4     1     5    1
    5     5     6    1
    6     5     7    1
    7     5     8    1
    8     8     9    1
    9     8    10    1
   10     8    11    1
   11    11    12    1
   12    11    13    1
   13    11    14    1
   14    14    15    1
   15    14    16    1
   16    14    17    1
   17    17    18    1
   18    17    19    1
   19    17    20    1
   20    20    21    1
   21    20    22    1
   22    20    23    1
   23    23    24    1
   24    23    25    1
   25    23    26    1
@<TRIPOS>SUBSTRUCTURE
       1 MOL1            1 RESIDUE      1      MOL     
@<SCITEGIC>MOL_PROPERTY
VM2 Rank
SciTegic.value.IntegerValue
110

@<SCITEGIC>MOL_PROPERTY
Conf_Id
SciTegic.value.IntegerValue
1074

@<SCITEGIC>MOL_PROPERTY
Probability
SciTegic.value.DoubleValue
0.02

@<SCITEGIC>MOL_PROPERTY
Sum Probability
SciTegic.value.DoubleValue
99.37

@<SCITEGIC>MOL_PROPERTY
Delta G
SciTegic.value.DoubleValue
3.549

@<SCITEGIC>MOL_PROPERTY
G
SciTegic.value.DoubleValue
51.811

@<SCITEGIC>MOL_PROPERTY
E
SciTegic.value.DoubleValue
19.184

@<SCITEGIC>MOL_PROPERTY
-TS
SciTegic.value.DoubleValue
32.627

@<SCITEGIC>MOL_PROPERTY
U+W
SciTegic.value.DoubleValue
-2.278

@<SCITEGIC>MOL_PROPERTY
U
SciTegic.value.DoubleValue
51.553

@<SCITEGIC>MOL_PROPERTY
W
SciTegic.value.DoubleValue
-53.830

@<SCITEGIC>MOL_PROPERTY
W(PB)
SciTegic.value.DoubleValue
-56.118

@<SCITEGIC>MOL_PROPERTY
W(SA)
SciTegic.value.DoubleValue
2.288

@<SCITEGIC>MOL_PROPERTY
Valence
SciTegic.value.DoubleValue
4.248

@<SCITEGIC>MOL_PROPERTY
Coulomb
SciTegic.value.DoubleValue
46.644

@<SCITEGIC>MOL_PROPERTY
VdW
SciTegic.value.DoubleValue
0.661

@<SCITEGIC>MOL_PROPERTY
VdW6
SciTegic.value.DoubleValue
-7.941

@<SCITEGIC>MOL_PROPERTY
VdW12
SciTegic.value.DoubleValue
8.602

@<SCITEGIC>MOL_PROPERTY
Bond
SciTegic.value.DoubleValue
0.222

@<SCITEGIC>MOL_PROPERTY
Angle
SciTegic.value.DoubleValue
1.189

@<SCITEGIC>MOL_PROPERTY
Pdih
SciTegic.value.DoubleValue
2.837

@<SCITEGIC>MOL_PROPERTY
Idih
SciTegic.value.DoubleValue
0.000

@<SCITEGIC>MOL_PROPERTY
Tether
SciTegic.value.DoubleValue
0.000

@<TRIPOS>MOLECULE
guest-s14_vm2.mol2 : vm2 ligand conformer 111
          26          25           1
SMALL
USER_CHARGES
 
@<TRIPOS>ATOM
       1    C1      19.613248   20.335966   20.684590 C.3        1 MOL1        -0.2400
       2    H1      18.593220   20.345074   21.089934 H          1 MOL1         0.0971
       3    H2      20.298080   20.721344   21.449910 H          1 MOL1         0.0971
       4    H3      19.644213   21.032768   19.837020 H          1 MOL1         0.0971
       5    C2      20.020472   18.917053   20.231332 C.3        1 MOL1        -0.1385
       6    H4      21.066303   18.928577   19.893954 H          1 MOL1         0.0960
       7    H5      19.420585   18.642575   19.352382 H          1 MOL1         0.0960
       8    C3      19.835596   17.822553   21.313334 C.3        1 MOL1        -0.1409
       9    H6      18.774081   17.732679   21.581955 H          1 MOL1         0.0960
      10    H7      20.107942   16.859989   20.858699 H          1 MOL1         0.0960
      11    C4      20.699562   18.016195   22.586863 C.3        1 MOL1        -0.1409
      12    H8      21.626214   18.550048   22.334982 H          1 MOL1         0.0960
      13    H9      21.008727   17.026368   22.950315 H          1 MOL1         0.0960
      14    C5      19.952876   18.738981   23.734752 C.3        1 MOL1        -0.1409
      15    H10     19.600318   19.722597   23.402494 H          1 MOL1         0.0960
      16    H11     19.059478   18.159128   24.001887 H          1 MOL1         0.0960
      17    C6      20.853301   18.915515   24.980230 C.3        1 MOL1        -0.1450
      18    H12     21.761933   19.463198   24.696726 H          1 MOL1         0.0960
      19    H13     21.181072   17.934985   25.350478 H          1 MOL1         0.0960
      20    C7      20.154046   19.686895   26.116158 C.3        1 MOL1         0.0172
      21    H14     20.863448   19.853923   26.931273 H          1 MOL1         0.0934
      22    H15     19.821141   20.661413   25.748882 H          1 MOL1         0.0934
      23    N1      18.951900   18.965843   26.693740 N.4        1 MOL1        -0.5956
      24    H16     19.205659   18.049426   27.076888 H          1 MOL1         0.3624
      25    H17     18.227392   18.808734   25.986429 H          1 MOL1         0.3624
      26    H18     18.517808   19.498993   27.455070 H          1 MOL1         0.3624
@<TRIPOS>BOND
    1     1     2    1
    2     1     3    1
    3     1     4    1
    4     1     5    1
    5     5     6    1
    6     5     7    1
    7     5     8    1
    8     8     9    1
    9     8    10    1
   10     8    11    1
   11    11    12    1
   12    11    13    1
   13    11    14    1
   14    14    15    1
   15    14    16    1
   16    14    17    1
   17    17    18    1
   18    17    19    1
   19    17    20    1
   20    20    21    1
   21    20    22    1
   22    20    23    1
   23    23    24    1
   24    23    25    1
   25    23    26    1
@<TRIPOS>SUBSTRUCTURE
       1 MOL1            1 RESIDUE      1      MOL     
@<SCITEGIC>MOL_PROPERTY
VM2 Rank
SciTegic.value.IntegerValue
111

@<SCITEGIC>MOL_PROPERTY
Conf_Id
SciTegic.value.IntegerValue
533

@<SCITEGIC>MOL_PROPERTY
Probability
SciTegic.value.DoubleValue
0.02

@<SCITEGIC>MOL_PROPERTY
Sum Probability
SciTegic.value.DoubleValue
99.39

@<SCITEGIC>MOL_PROPERTY
Delta G
SciTegic.value.DoubleValue
3.554

@<SCITEGIC>MOL_PROPERTY
G
SciTegic.value.DoubleValue
51.815

@<SCITEGIC>MOL_PROPERTY
E
SciTegic.value.DoubleValue
19.010

@<SCITEGIC>MOL_PROPERTY
-TS
SciTegic.value.DoubleValue
32.805

@<SCITEGIC>MOL_PROPERTY
U+W
SciTegic.value.DoubleValue
-2.452

@<SCITEGIC>MOL_PROPERTY
U
SciTegic.value.DoubleValue
51.297

@<SCITEGIC>MOL_PROPERTY
W
SciTegic.value.DoubleValue
-53.749

@<SCITEGIC>MOL_PROPERTY
W(PB)
SciTegic.value.DoubleValue
-56.016

@<SCITEGIC>MOL_PROPERTY
W(SA)
SciTegic.value.DoubleValue
2.267

@<SCITEGIC>MOL_PROPERTY
Valence
SciTegic.value.DoubleValue
5.228

@<SCITEGIC>MOL_PROPERTY
Coulomb
SciTegic.value.DoubleValue
45.276

@<SCITEGIC>MOL_PROPERTY
VdW
SciTegic.value.DoubleValue
0.793

@<SCITEGIC>MOL_PROPERTY
VdW6
SciTegic.value.DoubleValue
-7.860

@<SCITEGIC>MOL_PROPERTY
VdW12
SciTegic.value.DoubleValue
8.653

@<SCITEGIC>MOL_PROPERTY
Bond
SciTegic.value.DoubleValue
0.234

@<SCITEGIC>MOL_PROPERTY
Angle
SciTegic.value.DoubleValue
1.197

@<SCITEGIC>MOL_PROPERTY
Pdih
SciTegic.value.DoubleValue
3.797

@<SCITEGIC>MOL_PROPERTY
Idih
SciTegic.value.DoubleValue
0.000

@<SCITEGIC>MOL_PROPERTY
Tether
SciTegic.value.DoubleValue
0.000

@<TRIPOS>MOLECULE
guest-s14_vm2.mol2 : vm2 ligand conformer 112
          26          25           1
SMALL
USER_CHARGES
 
@<TRIPOS>ATOM
       1    C1      20.178164   19.099585   19.234260 C.3        1 MOL1        -0.2400
       2    H1      19.624160   20.036868   19.093455 H          1 MOL1         0.0971
       3    H2      21.234790   19.288982   19.004282 H          1 MOL1         0.0971
       4    H3      19.800129   18.371746   18.504615 H          1 MOL1         0.0971
       5    C2      20.009485   18.566771   20.673027 C.3        1 MOL1        -0.1385
       6    H4      20.550023   17.615307   20.774101 H          1 MOL1         0.0960
       7    H5      18.947793   18.350038   20.848619 H          1 MOL1         0.0960
       8    C3      20.532649   19.578852   21.720066 C.3        1 MOL1        -0.1409
       9    H6      21.570296   19.840423   21.470520 H          1 MOL1         0.0960
      10    H7      19.956485   20.512227   21.655699 H          1 MOL1         0.0960
      11    C4      20.500072   19.045928   23.173952 C.3        1 MOL1        -0.1409
      12    H8      21.041401   19.764350   23.801163 H          1 MOL1         0.0960
      13    H9      21.049932   18.096301   23.229354 H          1 MOL1         0.0960
      14    C5      19.067028   18.861278   23.733681 C.3        1 MOL1        -0.1409
      15    H10     18.551757   19.831626   23.746312 H          1 MOL1         0.0960
      16    H11     18.489701   18.216947   23.058967 H          1 MOL1         0.0960
      17    C6      19.008950   18.229272   25.148137 C.3        1 MOL1        -0.1450
      18    H12     19.463724   17.229783   25.139334 H          1 MOL1         0.0960
      19    H13     17.952049   18.076494   25.404068 H          1 MOL1         0.0960
      20    C7      19.641215   19.088502   26.262755 C.3        1 MOL1         0.0172
      21    H14     19.416132   20.144495   26.090962 H          1 MOL1         0.0934
      22    H15     19.205460   18.801055   27.223479 H          1 MOL1         0.0934
      23    N1      21.143436   18.928811   26.395122 N.4        1 MOL1        -0.5956
      24    H16     21.631405   19.185506   25.532558 H          1 MOL1         0.3624
      25    H17     21.404047   17.961711   26.613952 H          1 MOL1         0.3624
      26    H18     21.523555   19.517065   27.144705 H          1 MOL1         0.3624
@<TRIPOS>BOND
    1     1     2    1
    2     1     3    1
    3     1     4    1
    4     1     5    1
    5     5     6    1
    6     5     7    1
    7     5     8    1
    8     8     9    1
    9     8    10    1
   10     8    11    1
   11    11    12    1
   12    11    13    1
   13    11    14    1
   14    14    15    1
   15    14    16    1
   16    14    17    1
   17    17    18    1
   18    17    19    1
   19    17    20    1
   20    20    21    1
   21    20    22    1
   22    20    23    1
   23    23    24    1
   24    23    25    1
   25    23    26    1
@<TRIPOS>SUBSTRUCTURE
       1 MOL1            1 RESIDUE      1      MOL     
@<SCITEGIC>MOL_PROPERTY
VM2 Rank
SciTegic.value.IntegerValue
112

@<SCITEGIC>MOL_PROPERTY
Conf_Id
SciTegic.value.IntegerValue
1004

@<SCITEGIC>MOL_PROPERTY
Probability
SciTegic.value.DoubleValue
0.02

@<SCITEGIC>MOL_PROPERTY
Sum Probability
SciTegic.value.DoubleValue
99.41

@<SCITEGIC>MOL_PROPERTY
Delta G
SciTegic.value.DoubleValue
3.554

@<SCITEGIC>MOL_PROPERTY
G
SciTegic.value.DoubleValue
51.816

@<SCITEGIC>MOL_PROPERTY
E
SciTegic.value.DoubleValue
19.310

@<SCITEGIC>MOL_PROPERTY
-TS
SciTegic.value.DoubleValue
32.506

@<SCITEGIC>MOL_PROPERTY
U+W
SciTegic.value.DoubleValue
-2.152

@<SCITEGIC>MOL_PROPERTY
U
SciTegic.value.DoubleValue
51.605

@<SCITEGIC>MOL_PROPERTY
W
SciTegic.value.DoubleValue
-53.757

@<SCITEGIC>MOL_PROPERTY
W(PB)
SciTegic.value.DoubleValue
-56.048

@<SCITEGIC>MOL_PROPERTY
W(SA)
SciTegic.value.DoubleValue
2.291

@<SCITEGIC>MOL_PROPERTY
Valence
SciTegic.value.DoubleValue
4.452

@<SCITEGIC>MOL_PROPERTY
Coulomb
SciTegic.value.DoubleValue
46.417

@<SCITEGIC>MOL_PROPERTY
VdW
SciTegic.value.DoubleValue
0.736

@<SCITEGIC>MOL_PROPERTY
VdW6
SciTegic.value.DoubleValue
-7.820

@<SCITEGIC>MOL_PROPERTY
VdW12
SciTegic.value.DoubleValue
8.556

@<SCITEGIC>MOL_PROPERTY
Bond
SciTegic.value.DoubleValue
0.235

@<SCITEGIC>MOL_PROPERTY
Angle
SciTegic.value.DoubleValue
1.296

@<SCITEGIC>MOL_PROPERTY
Pdih
SciTegic.value.DoubleValue
2.921

@<SCITEGIC>MOL_PROPERTY
Idih
SciTegic.value.DoubleValue
0.000

@<SCITEGIC>MOL_PROPERTY
Tether
SciTegic.value.DoubleValue
0.000

@<TRIPOS>MOLECULE
guest-s14_vm2.mol2 : vm2 ligand conformer 113
          26          25           1
SMALL
USER_CHARGES
 
@<TRIPOS>ATOM
       1    C1      18.843071   18.088291   20.348100 C.3        1 MOL1        -0.2400
       2    H1      18.597601   17.492653   21.235824 H          1 MOL1         0.0971
       3    H2      18.125052   18.915740   20.278643 H          1 MOL1         0.0971
       4    H3      18.699569   17.445120   19.470212 H          1 MOL1         0.0971
       5    C2      20.295172   18.615246   20.400153 C.3        1 MOL1        -0.1385
       6    H4      20.532517   19.092959   19.439288 H          1 MOL1         0.0960
       7    H5      20.991320   17.771201   20.503678 H          1 MOL1         0.0960
       8    C3      20.539596   19.638079   21.535935 C.3        1 MOL1        -0.1409
       9    H6      21.556247   20.040645   21.427994 H          1 MOL1         0.0960
      10    H7      19.855687   20.489715   21.416342 H          1 MOL1         0.0960
      11    C4      20.380749   19.035974   22.952671 C.3        1 MOL1        -0.1409
      12    H8      21.034732   18.158735   23.052088 H          1 MOL1         0.0960
      13    H9      19.347522   18.694722   23.082817 H          1 MOL1         0.0960
      14    C5      20.722543   20.067587   24.053905 C.3        1 MOL1        -0.1409
      15    H10     21.702358   20.513393   23.833526 H          1 MOL1         0.0960
      16    H11     19.996852   20.892047   24.020781 H          1 MOL1         0.0960
      17    C6      20.772593   19.481915   25.488346 C.3        1 MOL1        -0.1450
      18    H12     21.095703   20.282295   26.167204 H          1 MOL1         0.0960
      19    H13     21.541728   18.701056   25.555884 H          1 MOL1         0.0960
      20    C7      19.423951   18.941546   26.007503 C.3        1 MOL1         0.0172
      21    H14     19.443148   18.928006   27.100640 H          1 MOL1         0.0934
      22    H15     18.612474   19.602279   25.690899 H          1 MOL1         0.0934
      23    N1      19.103325   17.530362   25.554387 N.4        1 MOL1        -0.5956
      24    H16     18.198567   17.211040   25.917578 H          1 MOL1         0.3624
      25    H17     19.807974   16.859438   25.877621 H          1 MOL1         0.3624
      26    H18     19.062728   17.458684   24.533993 H          1 MOL1         0.3624
@<TRIPOS>BOND
    1     1     2    1
    2     1     3    1
    3     1     4    1
    4     1     5    1
    5     5     6    1
    6     5     7    1
    7     5     8    1
    8     8     9    1
    9     8    10    1
   10     8    11    1
   11    11    12    1
   12    11    13    1
   13    11    14    1
   14    14    15    1
   15    14    16    1
   16    14    17    1
   17    17    18    1
   18    17    19    1
   19    17    20    1
   20    20    21    1
   21    20    22    1
   22    20    23    1
   23    23    24    1
   24    23    25    1
   25    23    26    1
@<TRIPOS>SUBSTRUCTURE
       1 MOL1            1 RESIDUE      1      MOL     
@<SCITEGIC>MOL_PROPERTY
VM2 Rank
SciTegic.value.IntegerValue
113

@<SCITEGIC>MOL_PROPERTY
Conf_Id
SciTegic.value.IntegerValue
672

@<SCITEGIC>MOL_PROPERTY
Probability
SciTegic.value.DoubleValue
0.02

@<SCITEGIC>MOL_PROPERTY
Sum Probability
SciTegic.value.DoubleValue
99.43

@<SCITEGIC>MOL_PROPERTY
Delta G
SciTegic.value.DoubleValue
3.563

@<SCITEGIC>MOL_PROPERTY
G
SciTegic.value.DoubleValue
51.825

@<SCITEGIC>MOL_PROPERTY
E
SciTegic.value.DoubleValue
19.217

@<SCITEGIC>MOL_PROPERTY
-TS
SciTegic.value.DoubleValue
32.608

@<SCITEGIC>MOL_PROPERTY
U+W
SciTegic.value.DoubleValue
-2.245

@<SCITEGIC>MOL_PROPERTY
U
SciTegic.value.DoubleValue
51.693

@<SCITEGIC>MOL_PROPERTY
W
SciTegic.value.DoubleValue
-53.938

@<SCITEGIC>MOL_PROPERTY
W(PB)
SciTegic.value.DoubleValue
-56.182

@<SCITEGIC>MOL_PROPERTY
W(SA)
SciTegic.value.DoubleValue
2.244

@<SCITEGIC>MOL_PROPERTY
Valence
SciTegic.value.DoubleValue
4.261

@<SCITEGIC>MOL_PROPERTY
Coulomb
SciTegic.value.DoubleValue
46.778

@<SCITEGIC>MOL_PROPERTY
VdW
SciTegic.value.DoubleValue
0.653

@<SCITEGIC>MOL_PROPERTY
VdW6
SciTegic.value.DoubleValue
-7.961

@<SCITEGIC>MOL_PROPERTY
VdW12
SciTegic.value.DoubleValue
8.615

@<SCITEGIC>MOL_PROPERTY
Bond
SciTegic.value.DoubleValue
0.225

@<SCITEGIC>MOL_PROPERTY
Angle
SciTegic.value.DoubleValue
1.192

@<SCITEGIC>MOL_PROPERTY
Pdih
SciTegic.value.DoubleValue
2.844

@<SCITEGIC>MOL_PROPERTY
Idih
SciTegic.value.DoubleValue
0.000

@<SCITEGIC>MOL_PROPERTY
Tether
SciTegic.value.DoubleValue
0.000

@<TRIPOS>MOLECULE
guest-s14_vm2.mol2 : vm2 ligand conformer 114
          26          25           1
SMALL
USER_CHARGES
 
@<TRIPOS>ATOM
       1    C1      19.398810   20.564587   20.639997 C.3        1 MOL1        -0.2400
       2    H1      19.644022   21.373209   21.340841 H          1 MOL1         0.0971
       3    H2      20.111570   20.606870   19.806099 H          1 MOL1         0.0971
       4    H3      18.396781   20.760367   20.236746 H          1 MOL1         0.0971
       5    C2      19.445183   19.190443   21.340749 C.3        1 MOL1        -0.1385
       6    H4      19.164952   18.405868   20.624131 H          1 MOL1         0.0960
       7    H5      18.692169   19.171839   22.138833 H          1 MOL1         0.0960
       8    C3      20.850253   18.891337   21.915097 C.3        1 MOL1        -0.1409
       9    H6      21.582135   18.941585   21.097136 H          1 MOL1         0.0960
      10    H7      21.147905   19.673290   22.624612 H          1 MOL1         0.0960
      11    C4      20.964682   17.497360   22.581539 C.3        1 MOL1        -0.1409
      12    H8      22.004923   17.346536   22.901415 H          1 MOL1         0.0960
      13    H9      20.774917   16.728644   21.819757 H          1 MOL1         0.0960
      14    C5      20.027239   17.233724   23.791318 C.3        1 MOL1        -0.1409
      15    H10     18.974174   17.264921   23.481520 H          1 MOL1         0.0960
      16    H11     20.202446   16.199880   24.119721 H          1 MOL1         0.0960
      17    C6      20.256560   18.163842   25.009718 C.3        1 MOL1        -0.1450
      18    H12     21.328449   18.369632   25.129952 H          1 MOL1         0.0960
      19    H13     19.939423   17.633347   25.917450 H          1 MOL1         0.0960
      20    C7      19.465265   19.483451   24.927498 C.3        1 MOL1         0.0172
      21    H14     19.761921   20.048379   24.041947 H          1 MOL1         0.0934
      22    H15     18.396757   19.265022   24.850838 H          1 MOL1         0.0934
      23    N1      19.673009   20.374256   26.135084 N.4        1 MOL1        -0.5956
      24    H16     20.656756   20.639098   26.249799 H          1 MOL1         0.3624
      25    H17     19.381412   19.914086   27.003615 H          1 MOL1         0.3624
      26    H18     19.135321   21.244920   26.063670 H          1 MOL1         0.3624
@<TRIPOS>BOND
    1     1     2    1
    2     1     3    1
    3     1     4    1
    4     1     5    1
    5     5     6    1
    6     5     7    1
    7     5     8    1
    8     8     9    1
    9     8    10    1
   10     8    11    1
   11    11    12    1
   12    11    13    1
   13    11    14    1
   14    14    15    1
   15    14    16    1
   16    14    17    1
   17    17    18    1
   18    17    19    1
   19    17    20    1
   20    20    21    1
   21    20    22    1
   22    20    23    1
   23    23    24    1
   24    23    25    1
   25    23    26    1
@<TRIPOS>SUBSTRUCTURE
       1 MOL1            1 RESIDUE      1      MOL     
@<SCITEGIC>MOL_PROPERTY
VM2 Rank
SciTegic.value.IntegerValue
114

@<SCITEGIC>MOL_PROPERTY
Conf_Id
SciTegic.value.IntegerValue
238

@<SCITEGIC>MOL_PROPERTY
Probability
SciTegic.value.DoubleValue
0.02

@<SCITEGIC>MOL_PROPERTY
Sum Probability
SciTegic.value.DoubleValue
99.45

@<SCITEGIC>MOL_PROPERTY
Delta G
SciTegic.value.DoubleValue
3.578

@<SCITEGIC>MOL_PROPERTY
G
SciTegic.value.DoubleValue
51.840

@<SCITEGIC>MOL_PROPERTY
E
SciTegic.value.DoubleValue
18.628

@<SCITEGIC>MOL_PROPERTY
-TS
SciTegic.value.DoubleValue
33.212

@<SCITEGIC>MOL_PROPERTY
U+W
SciTegic.value.DoubleValue
-2.834

@<SCITEGIC>MOL_PROPERTY
U
SciTegic.value.DoubleValue
51.403

@<SCITEGIC>MOL_PROPERTY
W
SciTegic.value.DoubleValue
-54.237

@<SCITEGIC>MOL_PROPERTY
W(PB)
SciTegic.value.DoubleValue
-56.493

@<SCITEGIC>MOL_PROPERTY
W(SA)
SciTegic.value.DoubleValue
2.256

@<SCITEGIC>MOL_PROPERTY
Valence
SciTegic.value.DoubleValue
5.069

@<SCITEGIC>MOL_PROPERTY
Coulomb
SciTegic.value.DoubleValue
46.079

@<SCITEGIC>MOL_PROPERTY
VdW
SciTegic.value.DoubleValue
0.255

@<SCITEGIC>MOL_PROPERTY
VdW6
SciTegic.value.DoubleValue
-8.819

@<SCITEGIC>MOL_PROPERTY
VdW12
SciTegic.value.DoubleValue
9.074

@<SCITEGIC>MOL_PROPERTY
Bond
SciTegic.value.DoubleValue
0.244

@<SCITEGIC>MOL_PROPERTY
Angle
SciTegic.value.DoubleValue
1.725

@<SCITEGIC>MOL_PROPERTY
Pdih
SciTegic.value.DoubleValue
3.100

@<SCITEGIC>MOL_PROPERTY
Idih
SciTegic.value.DoubleValue
0.000

@<SCITEGIC>MOL_PROPERTY
Tether
SciTegic.value.DoubleValue
0.000

@<TRIPOS>MOLECULE
guest-s14_vm2.mol2 : vm2 ligand conformer 115
          26          25           1
SMALL
USER_CHARGES
 
@<TRIPOS>ATOM
       1    C1      18.865030   20.211898   20.622435 C.3        1 MOL1        -0.2400
       2    H1      18.586074   19.598893   19.755481 H          1 MOL1         0.0971
       3    H2      17.993424   20.282358   21.286151 H          1 MOL1         0.0971
       4    H3      19.095462   21.222226   20.260301 H          1 MOL1         0.0971
       5    C2      20.077660   19.608410   21.361896 C.3        1 MOL1        -0.1385
       6    H4      20.352199   20.268781   22.194273 H          1 MOL1         0.0960
       7    H5      20.941608   19.580116   20.683351 H          1 MOL1         0.0960
       8    C3      19.776745   18.181748   21.879242 C.3        1 MOL1        -0.1409
       9    H6      18.908602   18.193172   22.549804 H          1 MOL1         0.0960
      10    H7      19.482501   17.553793   21.026992 H          1 MOL1         0.0960
      11    C4      20.982499   17.509077   22.582149 C.3        1 MOL1        -0.1409
      12    H8      21.798773   17.405344   21.854012 H          1 MOL1         0.0960
      13    H9      20.699718   16.483771   22.857747 H          1 MOL1         0.0960
      14    C5      21.534940   18.230176   23.841791 C.3        1 MOL1        -0.1409
      15    H10     22.401529   17.653292   24.193370 H          1 MOL1         0.0960
      16    H11     21.932314   19.219988   23.580528 H          1 MOL1         0.0960
      17    C6      20.533516   18.346922   25.018960 C.3        1 MOL1        -0.1450
      18    H12     21.102836   18.402284   25.956396 H          1 MOL1         0.0960
      19    H13     19.919717   17.438661   25.082715 H          1 MOL1         0.0960
      20    C7      19.633642   19.594772   24.933091 C.3        1 MOL1         0.0172
      21    H14     20.255695   20.493638   24.913394 H          1 MOL1         0.0934
      22    H15     19.039874   19.571229   24.017541 H          1 MOL1         0.0934
      23    N1      18.676967   19.715997   26.101437 N.4        1 MOL1        -0.5956
      24    H16     19.173243   19.776499   26.996525 H          1 MOL1         0.3624
      25    H17     18.043586   18.912092   26.161623 H          1 MOL1         0.3624
      26    H18     18.090153   20.554194   26.028383 H          1 MOL1         0.3624
@<TRIPOS>BOND
    1     1     2    1
    2     1     3    1
    3     1     4    1
    4     1     5    1
    5     5     6    1
    6     5     7    1
    7     5     8    1
    8     8     9    1
    9     8    10    1
   10     8    11    1
   11    11    12    1
   12    11    13    1
   13    11    14    1
   14    14    15    1
   15    14    16    1
   16    14    17    1
   17    17    18    1
   18    17    19    1
   19    17    20    1
   20    20    21    1
   21    20    22    1
   22    20    23    1
   23    23    24    1
   24    23    25    1
   25    23    26    1
@<TRIPOS>SUBSTRUCTURE
       1 MOL1            1 RESIDUE      1      MOL     
@<SCITEGIC>MOL_PROPERTY
VM2 Rank
SciTegic.value.IntegerValue
115

@<SCITEGIC>MOL_PROPERTY
Conf_Id
SciTegic.value.IntegerValue
820

@<SCITEGIC>MOL_PROPERTY
Probability
SciTegic.value.DoubleValue
0.02

@<SCITEGIC>MOL_PROPERTY
Sum Probability
SciTegic.value.DoubleValue
99.46

@<SCITEGIC>MOL_PROPERTY
Delta G
SciTegic.value.DoubleValue
3.595

@<SCITEGIC>MOL_PROPERTY
G
SciTegic.value.DoubleValue
51.856

@<SCITEGIC>MOL_PROPERTY
E
SciTegic.value.DoubleValue
18.644

@<SCITEGIC>MOL_PROPERTY
-TS
SciTegic.value.DoubleValue
33.212

@<SCITEGIC>MOL_PROPERTY
U+W
SciTegic.value.DoubleValue
-2.818

@<SCITEGIC>MOL_PROPERTY
U
SciTegic.value.DoubleValue
51.403

@<SCITEGIC>MOL_PROPERTY
W
SciTegic.value.DoubleValue
-54.221

@<SCITEGIC>MOL_PROPERTY
W(PB)
SciTegic.value.DoubleValue
-56.463

@<SCITEGIC>MOL_PROPERTY
W(SA)
SciTegic.value.DoubleValue
2.243

@<SCITEGIC>MOL_PROPERTY
Valence
SciTegic.value.DoubleValue
5.068

@<SCITEGIC>MOL_PROPERTY
Coulomb
SciTegic.value.DoubleValue
46.079

@<SCITEGIC>MOL_PROPERTY
VdW
SciTegic.value.DoubleValue
0.255

@<SCITEGIC>MOL_PROPERTY
VdW6
SciTegic.value.DoubleValue
-8.820

@<SCITEGIC>MOL_PROPERTY
VdW12
SciTegic.value.DoubleValue
9.075

@<SCITEGIC>MOL_PROPERTY
Bond
SciTegic.value.DoubleValue
0.244

@<SCITEGIC>MOL_PROPERTY
Angle
SciTegic.value.DoubleValue
1.724

@<SCITEGIC>MOL_PROPERTY
Pdih
SciTegic.value.DoubleValue
3.100

@<SCITEGIC>MOL_PROPERTY
Idih
SciTegic.value.DoubleValue
0.000

@<SCITEGIC>MOL_PROPERTY
Tether
SciTegic.value.DoubleValue
0.000

@<TRIPOS>MOLECULE
guest-s14_vm2.mol2 : vm2 ligand conformer 116
          26          25           1
SMALL
USER_CHARGES
 
@<TRIPOS>ATOM
       1    C1      21.374065   19.756943   20.432659 C.3        1 MOL1        -0.2400
       2    H1      20.899609   20.744968   20.371475 H          1 MOL1         0.0971
       3    H2      21.976293   19.720008   21.348657 H          1 MOL1         0.0971
       4    H3      22.061921   19.661966   19.582492 H          1 MOL1         0.0971
       5    C2      20.316999   18.629740   20.400832 C.3        1 MOL1        -0.1385
       6    H4      20.813713   17.654206   20.497579 H          1 MOL1         0.0960
       7    H5      19.829686   18.629842   19.415779 H          1 MOL1         0.0960
       8    C3      19.228798   18.773900   21.492148 C.3        1 MOL1        -0.1409
       9    H6      18.720957   19.741625   21.378472 H          1 MOL1         0.0960
      10    H7      18.464625   18.002341   21.324730 H          1 MOL1         0.0960
      11    C4      19.778297   18.638774   22.932529 C.3        1 MOL1        -0.1409
      12    H8      20.491610   19.449085   23.121022 H          1 MOL1         0.0960
      13    H9      20.322375   17.689067   23.028239 H          1 MOL1         0.0960
      14    C5      18.645346   18.697989   23.984520 C.3        1 MOL1        -0.1409
      15    H10     18.174833   19.690698   23.959954 H          1 MOL1         0.0960
      16    H11     17.861192   17.980750   23.705200 H          1 MOL1         0.0960
      17    C6      19.096821   18.376941   25.432360 C.3        1 MOL1        -0.1450
      18    H12     19.508653   17.360486   25.487914 H          1 MOL1         0.0960
      19    H13     18.203209   18.375030   26.070569 H          1 MOL1         0.0960
      20    C7      20.098791   19.386454   26.030102 C.3        1 MOL1         0.0172
      21    H14     19.825485   20.402074   25.731570 H          1 MOL1         0.0934
      22    H15     20.052843   19.329854   27.121059 H          1 MOL1         0.0934
      23    N1      21.541884   19.138260   25.635849 N.4        1 MOL1        -0.5956
      24    H16     21.866198   18.216513   25.946261 H          1 MOL1         0.3624
      25    H17     22.173714   19.832064   26.050440 H          1 MOL1         0.3624
      26    H18     21.671129   19.178697   24.621131 H          1 MOL1         0.3624
@<TRIPOS>BOND
    1     1     2    1
    2     1     3    1
    3     1     4    1
    4     1     5    1
    5     5     6    1
    6     5     7    1
    7     5     8    1
    8     8     9    1
    9     8    10    1
   10     8    11    1
   11    11    12    1
   12    11    13    1
   13    11    14    1
   14    14    15    1
   15    14    16    1
   16    14    17    1
   17    17    18    1
   18    17    19    1
   19    17    20    1
   20    20    21    1
   21    20    22    1
   22    20    23    1
   23    23    24    1
   24    23    25    1
   25    23    26    1
@<TRIPOS>SUBSTRUCTURE
       1 MOL1            1 RESIDUE      1      MOL     
@<SCITEGIC>MOL_PROPERTY
VM2 Rank
SciTegic.value.IntegerValue
116

@<SCITEGIC>MOL_PROPERTY
Conf_Id
SciTegic.value.IntegerValue
367

@<SCITEGIC>MOL_PROPERTY
Probability
SciTegic.value.DoubleValue
0.02

@<SCITEGIC>MOL_PROPERTY
Sum Probability
SciTegic.value.DoubleValue
99.48

@<SCITEGIC>MOL_PROPERTY
Delta G
SciTegic.value.DoubleValue
3.618

@<SCITEGIC>MOL_PROPERTY
G
SciTegic.value.DoubleValue
51.880

@<SCITEGIC>MOL_PROPERTY
E
SciTegic.value.DoubleValue
19.271

@<SCITEGIC>MOL_PROPERTY
-TS
SciTegic.value.DoubleValue
32.608

@<SCITEGIC>MOL_PROPERTY
U+W
SciTegic.value.DoubleValue
-2.191

@<SCITEGIC>MOL_PROPERTY
U
SciTegic.value.DoubleValue
51.693

@<SCITEGIC>MOL_PROPERTY
W
SciTegic.value.DoubleValue
-53.883

@<SCITEGIC>MOL_PROPERTY
W(PB)
SciTegic.value.DoubleValue
-56.153

@<SCITEGIC>MOL_PROPERTY
W(SA)
SciTegic.value.DoubleValue
2.270

@<SCITEGIC>MOL_PROPERTY
Valence
SciTegic.value.DoubleValue
4.262

@<SCITEGIC>MOL_PROPERTY
Coulomb
SciTegic.value.DoubleValue
46.778

@<SCITEGIC>MOL_PROPERTY
VdW
SciTegic.value.DoubleValue
0.653

@<SCITEGIC>MOL_PROPERTY
VdW6
SciTegic.value.DoubleValue
-7.961

@<SCITEGIC>MOL_PROPERTY
VdW12
SciTegic.value.DoubleValue
8.614

@<SCITEGIC>MOL_PROPERTY
Bond
SciTegic.value.DoubleValue
0.225

@<SCITEGIC>MOL_PROPERTY
Angle
SciTegic.value.DoubleValue
1.193

@<SCITEGIC>MOL_PROPERTY
Pdih
SciTegic.value.DoubleValue
2.844

@<SCITEGIC>MOL_PROPERTY
Idih
SciTegic.value.DoubleValue
0.000

@<SCITEGIC>MOL_PROPERTY
Tether
SciTegic.value.DoubleValue
0.000

@<TRIPOS>MOLECULE
guest-s14_vm2.mol2 : vm2 ligand conformer 117
          26          25           1
SMALL
USER_CHARGES
 
@<TRIPOS>ATOM
       1    C1      20.198439   18.771191   19.594986 C.3        1 MOL1        -0.2400
       2    H1      20.218537   18.098625   18.727703 H          1 MOL1         0.0971
       3    H2      19.632219   19.667823   19.311326 H          1 MOL1         0.0971
       4    H3      21.233220   19.069170   19.804560 H          1 MOL1         0.0971
       5    C2      19.552825   18.067265   20.810112 C.3        1 MOL1        -0.1385
       6    H4      20.155237   17.192907   21.093554 H          1 MOL1         0.0960
       7    H5      18.568965   17.678762   20.511969 H          1 MOL1         0.0960
       8    C3      19.369324   18.995195   22.035329 C.3        1 MOL1        -0.1409
       9    H6      18.747750   19.855325   21.750802 H          1 MOL1         0.0960
      10    H7      18.799890   18.448372   22.795448 H          1 MOL1         0.0960
      11    C4      20.709224   19.499353   22.631267 C.3        1 MOL1        -0.1409
      12    H8      21.206980   20.130015   21.882953 H          1 MOL1         0.0960
      13    H9      21.387116   18.655175   22.817976 H          1 MOL1         0.0960
      14    C5      20.536889   20.338914   23.924043 C.3        1 MOL1        -0.1409
      15    H10     21.333249   21.095658   23.949627 H          1 MOL1         0.0960
      16    H11     19.593464   20.901244   23.889965 H          1 MOL1         0.0960
      17    C6      20.626494   19.522732   25.238159 C.3        1 MOL1        -0.1450
      18    H12     20.572525   20.217479   26.086891 H          1 MOL1         0.0960
      19    H13     21.607812   19.033643   25.299193 H          1 MOL1         0.0960
      20    C7      19.519090   18.465023   25.389064 C.3        1 MOL1         0.0172
      21    H14     18.539249   18.941912   25.300589 H          1 MOL1         0.0934
      22    H15     19.614792   17.717823   24.597254 H          1 MOL1         0.0934
      23    N1      19.568716   17.739326   26.718040 N.4        1 MOL1        -0.5956
      24    H16     19.457763   18.382382   27.508826 H          1 MOL1         0.3624
      25    H17     20.458272   17.247419   26.851769 H          1 MOL1         0.3624
      26    H18     18.824552   17.037714   26.797330 H          1 MOL1         0.3624
@<TRIPOS>BOND
    1     1     2    1
    2     1     3    1
    3     1     4    1
    4     1     5    1
    5     5     6    1
    6     5     7    1
    7     5     8    1
    8     8     9    1
    9     8    10    1
   10     8    11    1
   11    11    12    1
   12    11    13    1
   13    11    14    1
   14    14    15    1
   15    14    16    1
   16    14    17    1
   17    17    18    1
   18    17    19    1
   19    17    20    1
   20    20    21    1
   21    20    22    1
   22    20    23    1
   23    23    24    1
   24    23    25    1
   25    23    26    1
@<TRIPOS>SUBSTRUCTURE
       1 MOL1            1 RESIDUE      1      MOL     
@<SCITEGIC>MOL_PROPERTY
VM2 Rank
SciTegic.value.IntegerValue
117

@<SCITEGIC>MOL_PROPERTY
Conf_Id
SciTegic.value.IntegerValue
1319

@<SCITEGIC>MOL_PROPERTY
Probability
SciTegic.value.DoubleValue
0.02

@<SCITEGIC>MOL_PROPERTY
Sum Probability
SciTegic.value.DoubleValue
99.50

@<SCITEGIC>MOL_PROPERTY
Delta G
SciTegic.value.DoubleValue
3.620

@<SCITEGIC>MOL_PROPERTY
G
SciTegic.value.DoubleValue
51.881

@<SCITEGIC>MOL_PROPERTY
E
SciTegic.value.DoubleValue
19.216

@<SCITEGIC>MOL_PROPERTY
-TS
SciTegic.value.DoubleValue
32.665

@<SCITEGIC>MOL_PROPERTY
U+W
SciTegic.value.DoubleValue
-2.246

@<SCITEGIC>MOL_PROPERTY
U
SciTegic.value.DoubleValue
51.521

@<SCITEGIC>MOL_PROPERTY
W
SciTegic.value.DoubleValue
-53.766

@<SCITEGIC>MOL_PROPERTY
W(PB)
SciTegic.value.DoubleValue
-56.075

@<SCITEGIC>MOL_PROPERTY
W(SA)
SciTegic.value.DoubleValue
2.309

@<SCITEGIC>MOL_PROPERTY
Valence
SciTegic.value.DoubleValue
5.276

@<SCITEGIC>MOL_PROPERTY
Coulomb
SciTegic.value.DoubleValue
45.448

@<SCITEGIC>MOL_PROPERTY
VdW
SciTegic.value.DoubleValue
0.798

@<SCITEGIC>MOL_PROPERTY
VdW6
SciTegic.value.DoubleValue
-7.889

@<SCITEGIC>MOL_PROPERTY
VdW12
SciTegic.value.DoubleValue
8.687

@<SCITEGIC>MOL_PROPERTY
Bond
SciTegic.value.DoubleValue
0.249

@<SCITEGIC>MOL_PROPERTY
Angle
SciTegic.value.DoubleValue
1.289

@<SCITEGIC>MOL_PROPERTY
Pdih
SciTegic.value.DoubleValue
3.738

@<SCITEGIC>MOL_PROPERTY
Idih
SciTegic.value.DoubleValue
0.000

@<SCITEGIC>MOL_PROPERTY
Tether
SciTegic.value.DoubleValue
0.000

@<TRIPOS>MOLECULE
guest-s14_vm2.mol2 : vm2 ligand conformer 118
          26          25           1
SMALL
USER_CHARGES
 
@<TRIPOS>ATOM
       1    C1      20.249028   18.805425   19.596491 C.3        1 MOL1        -0.2400
       2    H1      19.661521   19.688185   19.312607 H          1 MOL1         0.0971
       3    H2      20.898957   18.548441   18.750043 H          1 MOL1         0.0971
       4    H3      19.558748   17.966376   19.748139 H          1 MOL1         0.0971
       5    C2      21.092922   19.082488   20.861378 C.3        1 MOL1        -0.1385
       6    H4      21.850492   19.841704   20.621619 H          1 MOL1         0.0960
       7    H5      21.645656   18.175258   21.142737 H          1 MOL1         0.0960
       8    C3      20.256169   19.579364   22.065058 C.3        1 MOL1        -0.1409
       9    H6      20.946975   19.862795   22.867240 H          1 MOL1         0.0960
      10    H7      19.723968   20.498518   21.783898 H          1 MOL1         0.0960
      11    C4      19.238690   18.529559   22.582066 C.3        1 MOL1        -0.1409
      12    H8      19.738710   17.568113   22.762713 H          1 MOL1         0.0960
      13    H9      18.498728   18.344447   21.792347 H          1 MOL1         0.0960
      14    C5      18.475214   18.979306   23.855119 C.3        1 MOL1        -0.1409
      15    H10     18.330980   20.068602   23.847741 H          1 MOL1         0.0960
      16    H11     17.466155   18.545602   23.820389 H          1 MOL1         0.0960
      17    C6      19.128439   18.534769   25.188076 C.3        1 MOL1        -0.1450
      18    H12     19.189391   17.438736   25.218315 H          1 MOL1         0.0960
      19    H13     18.471977   18.832195   26.016645 H          1 MOL1         0.0960
      20    C7      20.527799   19.130187   25.422886 C.3        1 MOL1         0.0172
      21    H14     21.213470   18.771808   24.650972 H          1 MOL1         0.0934
      22    H15     20.478785   20.220884   25.365318 H          1 MOL1         0.0934
      23    N1      21.112740   18.757902   26.769927 N.4        1 MOL1        -0.5956
      24    H16     22.045712   19.162317   26.905353 H          1 MOL1         0.3624
      25    H17     21.208904   17.742825   26.877344 H          1 MOL1         0.3624
      26    H18     20.528758   19.089255   27.544747 H          1 MOL1         0.3624
@<TRIPOS>BOND
    1     1     2    1
    2     1     3    1
    3     1     4    1
    4     1     5    1
    5     5     6    1
    6     5     7    1
    7     5     8    1
    8     8     9    1
    9     8    10    1
   10     8    11    1
   11    11    12    1
   12    11    13    1
   13    11    14    1
   14    14    15    1
   15    14    16    1
   16    14    17    1
   17    17    18    1
   18    17    19    1
   19    17    20    1
   20    20    21    1
   21    20    22    1
   22    20    23    1
   23    23    24    1
   24    23    25    1
   25    23    26    1
@<TRIPOS>SUBSTRUCTURE
       1 MOL1            1 RESIDUE      1      MOL     
@<SCITEGIC>MOL_PROPERTY
VM2 Rank
SciTegic.value.IntegerValue
118

@<SCITEGIC>MOL_PROPERTY
Conf_Id
SciTegic.value.IntegerValue
997

@<SCITEGIC>MOL_PROPERTY
Probability
SciTegic.value.DoubleValue
0.02

@<SCITEGIC>MOL_PROPERTY
Sum Probability
SciTegic.value.DoubleValue
99.52

@<SCITEGIC>MOL_PROPERTY
Delta G
SciTegic.value.DoubleValue
3.639

@<SCITEGIC>MOL_PROPERTY
G
SciTegic.value.DoubleValue
51.900

@<SCITEGIC>MOL_PROPERTY
E
SciTegic.value.DoubleValue
19.235

@<SCITEGIC>MOL_PROPERTY
-TS
SciTegic.value.DoubleValue
32.665

@<SCITEGIC>MOL_PROPERTY
U+W
SciTegic.value.DoubleValue
-2.227

@<SCITEGIC>MOL_PROPERTY
U
SciTegic.value.DoubleValue
51.521

@<SCITEGIC>MOL_PROPERTY
W
SciTegic.value.DoubleValue
-53.747

@<SCITEGIC>MOL_PROPERTY
W(PB)
SciTegic.value.DoubleValue
-56.043

@<SCITEGIC>MOL_PROPERTY
W(SA)
SciTegic.value.DoubleValue
2.296

@<SCITEGIC>MOL_PROPERTY
Valence
SciTegic.value.DoubleValue
5.275

@<SCITEGIC>MOL_PROPERTY
Coulomb
SciTegic.value.DoubleValue
45.448

@<SCITEGIC>MOL_PROPERTY
VdW
SciTegic.value.DoubleValue
0.798

@<SCITEGIC>MOL_PROPERTY
VdW6
SciTegic.value.DoubleValue
-7.889

@<SCITEGIC>MOL_PROPERTY
VdW12
SciTegic.value.DoubleValue
8.686

@<SCITEGIC>MOL_PROPERTY
Bond
SciTegic.value.DoubleValue
0.249

@<SCITEGIC>MOL_PROPERTY
Angle
SciTegic.value.DoubleValue
1.289

@<SCITEGIC>MOL_PROPERTY
Pdih
SciTegic.value.DoubleValue
3.737

@<SCITEGIC>MOL_PROPERTY
Idih
SciTegic.value.DoubleValue
0.000

@<SCITEGIC>MOL_PROPERTY
Tether
SciTegic.value.DoubleValue
0.000

@<TRIPOS>MOLECULE
guest-s14_vm2.mol2 : vm2 ligand conformer 119
          26          25           1
SMALL
USER_CHARGES
 
@<TRIPOS>ATOM
       1    C1      20.133177   19.512586   19.662293 C.3        1 MOL1        -0.2400
       2    H1      19.203155   18.936479   19.584440 H          1 MOL1         0.0971
       3    H2      19.872960   20.565351   19.832520 H          1 MOL1         0.0971
       4    H3      20.642889   19.446059   18.692395 H          1 MOL1         0.0971
       5    C2      21.045137   18.976062   20.789252 C.3        1 MOL1        -0.1385
       6    H4      22.009921   19.499969   20.738877 H          1 MOL1         0.0960
       7    H5      21.263729   17.913115   20.615685 H          1 MOL1         0.0960
       8    C3      20.453708   19.165658   22.207280 C.3        1 MOL1        -0.1409
       9    H6      21.233988   18.900493   22.931564 H          1 MOL1         0.0960
      10    H7      20.217397   20.226447   22.368037 H          1 MOL1         0.0960
      11    C4      19.198508   18.298097   22.474180 C.3        1 MOL1        -0.1409
      12    H8      19.467209   17.235818   22.394243 H          1 MOL1         0.0960
      13    H9      18.451663   18.483288   21.691930 H          1 MOL1         0.0960
      14    C5      18.517680   18.555683   23.843747 C.3        1 MOL1        -0.1409
      15    H10     18.143927   19.588008   23.890843 H          1 MOL1         0.0960
      16    H11     17.626468   17.914949   23.895500 H          1 MOL1         0.0960
      17    C6      19.400249   18.253854   25.081130 C.3        1 MOL1        -0.1450
      18    H12     20.049151   17.390809   24.881248 H          1 MOL1         0.0960
      19    H13     18.746538   17.963686   25.914483 H          1 MOL1         0.0960
      20    C7      20.240171   19.464760   25.532590 C.3        1 MOL1         0.0172
      21    H14     20.905532   19.785908   24.729086 H          1 MOL1         0.0934
      22    H15     19.576844   20.298221   25.778991 H          1 MOL1         0.0934
      23    N1      21.092371   19.172300   26.750529 N.4        1 MOL1        -0.5956
      24    H16     20.523262   18.895598   27.557211 H          1 MOL1         0.3624
      25    H17     21.639614   19.990850   27.038362 H          1 MOL1         0.3624
      26    H18     21.759162   18.413054   26.577219 H          1 MOL1         0.3624
@<TRIPOS>BOND
    1     1     2    1
    2     1     3    1
    3     1     4    1
    4     1     5    1
    5     5     6    1
    6     5     7    1
    7     5     8    1
    8     8     9    1
    9     8    10    1
   10     8    11    1
   11    11    12    1
   12    11    13    1
   13    11    14    1
   14    14    15    1
   15    14    16    1
   16    14    17    1
   17    17    18    1
   18    17    19    1
   19    17    20    1
   20    20    21    1
   21    20    22    1
   22    20    23    1
   23    23    24    1
   24    23    25    1
   25    23    26    1
@<TRIPOS>SUBSTRUCTURE
       1 MOL1            1 RESIDUE      1      MOL     
@<SCITEGIC>MOL_PROPERTY
VM2 Rank
SciTegic.value.IntegerValue
119

@<SCITEGIC>MOL_PROPERTY
Conf_Id
SciTegic.value.IntegerValue
1208

@<SCITEGIC>MOL_PROPERTY
Probability
SciTegic.value.DoubleValue
0.02

@<SCITEGIC>MOL_PROPERTY
Sum Probability
SciTegic.value.DoubleValue
99.54

@<SCITEGIC>MOL_PROPERTY
Delta G
SciTegic.value.DoubleValue
3.640

@<SCITEGIC>MOL_PROPERTY
G
SciTegic.value.DoubleValue
51.902

@<SCITEGIC>MOL_PROPERTY
E
SciTegic.value.DoubleValue
19.156

@<SCITEGIC>MOL_PROPERTY
-TS
SciTegic.value.DoubleValue
32.745

@<SCITEGIC>MOL_PROPERTY
U+W
SciTegic.value.DoubleValue
-2.305

@<SCITEGIC>MOL_PROPERTY
U
SciTegic.value.DoubleValue
51.609

@<SCITEGIC>MOL_PROPERTY
W
SciTegic.value.DoubleValue
-53.915

@<SCITEGIC>MOL_PROPERTY
W(PB)
SciTegic.value.DoubleValue
-56.222

@<SCITEGIC>MOL_PROPERTY
W(SA)
SciTegic.value.DoubleValue
2.307

@<SCITEGIC>MOL_PROPERTY
Valence
SciTegic.value.DoubleValue
5.204

@<SCITEGIC>MOL_PROPERTY
Coulomb
SciTegic.value.DoubleValue
45.645

@<SCITEGIC>MOL_PROPERTY
VdW
SciTegic.value.DoubleValue
0.760

@<SCITEGIC>MOL_PROPERTY
VdW6
SciTegic.value.DoubleValue
-7.997

@<SCITEGIC>MOL_PROPERTY
VdW12
SciTegic.value.DoubleValue
8.757

@<SCITEGIC>MOL_PROPERTY
Bond
SciTegic.value.DoubleValue
0.240

@<SCITEGIC>MOL_PROPERTY
Angle
SciTegic.value.DoubleValue
1.456

@<SCITEGIC>MOL_PROPERTY
Pdih
SciTegic.value.DoubleValue
3.507

@<SCITEGIC>MOL_PROPERTY
Idih
SciTegic.value.DoubleValue
0.000

@<SCITEGIC>MOL_PROPERTY
Tether
SciTegic.value.DoubleValue
0.000

@<TRIPOS>MOLECULE
guest-s14_vm2.mol2 : vm2 ligand conformer 120
          26          25           1
SMALL
USER_CHARGES
 
@<TRIPOS>ATOM
       1    C1      19.591053   19.154954   19.644108 C.3        1 MOL1        -0.2400
       2    H1      20.489137   19.784293   19.627367 H          1 MOL1         0.0971
       3    H2      19.497138   18.690275   18.654063 H          1 MOL1         0.0971
       4    H3      18.718451   19.803932   19.793760 H          1 MOL1         0.0971
       5    C2      19.673028   18.071274   20.743419 C.3        1 MOL1        -0.1385
       6    H4      20.571474   17.456594   20.592663 H          1 MOL1         0.0960
       7    H5      18.815194   17.393364   20.632142 H          1 MOL1         0.0960
       8    C3      19.665168   18.645818   22.180909 C.3        1 MOL1        -0.1409
       9    H6      18.776274   19.276332   22.319766 H          1 MOL1         0.0960
      10    H7      19.568394   17.802429   22.875938 H          1 MOL1         0.0960
      11    C4      20.942640   19.448253   22.532457 C.3        1 MOL1        -0.1409
      12    H8      21.102372   20.231216   21.780496 H          1 MOL1         0.0960
      13    H9      21.816421   18.784953   22.472755 H          1 MOL1         0.0960
      14    C5      20.909772   20.133109   23.923674 C.3        1 MOL1        -0.1409
      15    H10     21.845915   20.697371   24.036470 H          1 MOL1         0.0960
      16    H11     20.106258   20.882039   23.956420 H          1 MOL1         0.0960
      17    C6      20.782749   19.165518   25.127328 C.3        1 MOL1        -0.1450
      18    H12     21.267266   19.625919   25.998697 H          1 MOL1         0.0960
      19    H13     21.329820   18.235324   24.924039 H          1 MOL1         0.0960
      20    C7      19.319679   18.857768   25.501890 C.3        1 MOL1         0.0172
      21    H14     18.803303   19.788111   25.753271 H          1 MOL1         0.0934
      22    H15     18.800713   18.398020   24.658821 H          1 MOL1         0.0934
      23    N1      19.196912   17.922306   26.687216 N.4        1 MOL1        -0.5956
      24    H16     19.640325   17.015787   26.506360 H          1 MOL1         0.3624
      25    H17     18.216777   17.733696   26.924089 H          1 MOL1         0.3624
      26    H18     19.637145   18.311060   27.527604 H          1 MOL1         0.3624
@<TRIPOS>BOND
    1     1     2    1
    2     1     3    1
    3     1     4    1
    4     1     5    1
    5     5     6    1
    6     5     7    1
    7     5     8    1
    8     8     9    1
    9     8    10    1
   10     8    11    1
   11    11    12    1
   12    11    13    1
   13    11    14    1
   14    14    15    1
   15    14    16    1
   16    14    17    1
   17    17    18    1
   18    17    19    1
   19    17    20    1
   20    20    21    1
   21    20    22    1
   22    20    23    1
   23    23    24    1
   24    23    25    1
   25    23    26    1
@<TRIPOS>SUBSTRUCTURE
       1 MOL1            1 RESIDUE      1      MOL     
@<SCITEGIC>MOL_PROPERTY
VM2 Rank
SciTegic.value.IntegerValue
120

@<SCITEGIC>MOL_PROPERTY
Conf_Id
SciTegic.value.IntegerValue
659

@<SCITEGIC>MOL_PROPERTY
Probability
SciTegic.value.DoubleValue
0.02

@<SCITEGIC>MOL_PROPERTY
Sum Probability
SciTegic.value.DoubleValue
99.55

@<SCITEGIC>MOL_PROPERTY
Delta G
SciTegic.value.DoubleValue
3.646

@<SCITEGIC>MOL_PROPERTY
G
SciTegic.value.DoubleValue
51.908

@<SCITEGIC>MOL_PROPERTY
E
SciTegic.value.DoubleValue
19.162

@<SCITEGIC>MOL_PROPERTY
-TS
SciTegic.value.DoubleValue
32.745

@<SCITEGIC>MOL_PROPERTY
U+W
SciTegic.value.DoubleValue
-2.299

@<SCITEGIC>MOL_PROPERTY
U
SciTegic.value.DoubleValue
51.609

@<SCITEGIC>MOL_PROPERTY
W
SciTegic.value.DoubleValue
-53.909

@<SCITEGIC>MOL_PROPERTY
W(PB)
SciTegic.value.DoubleValue
-56.178

@<SCITEGIC>MOL_PROPERTY
W(SA)
SciTegic.value.DoubleValue
2.270

@<SCITEGIC>MOL_PROPERTY
Valence
SciTegic.value.DoubleValue
5.204

@<SCITEGIC>MOL_PROPERTY
Coulomb
SciTegic.value.DoubleValue
45.645

@<SCITEGIC>MOL_PROPERTY
VdW
SciTegic.value.DoubleValue
0.760

@<SCITEGIC>MOL_PROPERTY
VdW6
SciTegic.value.DoubleValue
-7.997

@<SCITEGIC>MOL_PROPERTY
VdW12
SciTegic.value.DoubleValue
8.757

@<SCITEGIC>MOL_PROPERTY
Bond
SciTegic.value.DoubleValue
0.240

@<SCITEGIC>MOL_PROPERTY
Angle
SciTegic.value.DoubleValue
1.456

@<SCITEGIC>MOL_PROPERTY
Pdih
SciTegic.value.DoubleValue
3.507

@<SCITEGIC>MOL_PROPERTY
Idih
SciTegic.value.DoubleValue
0.000

@<SCITEGIC>MOL_PROPERTY
Tether
SciTegic.value.DoubleValue
0.000

@<TRIPOS>MOLECULE
guest-s14_vm2.mol2 : vm2 ligand conformer 121
          26          25           1
SMALL
USER_CHARGES
 
@<TRIPOS>ATOM
       1    C1      20.376755   20.298031   19.994798 C.3        1 MOL1        -0.2400
       2    H1      21.330340   20.660160   19.589134 H          1 MOL1         0.0971
       3    H2      19.761543   19.954064   19.153117 H          1 MOL1         0.0971
       4    H3      19.866596   21.148081   20.466342 H          1 MOL1         0.0971
       5    C2      20.613434   19.160640   21.010787 C.3        1 MOL1        -0.1385
       6    H4      21.265880   19.526069   21.812705 H          1 MOL1         0.0960
       7    H5      21.154783   18.341542   20.517063 H          1 MOL1         0.0960
       8    C3      19.280753   18.626132   21.588719 C.3        1 MOL1        -0.1409
       9    H6      18.699994   19.445409   22.034346 H          1 MOL1         0.0960
      10    H7      18.675856   18.245728   20.753952 H          1 MOL1         0.0960
      11    C4      19.467537   17.482178   22.619436 C.3        1 MOL1        -0.1409
      12    H8      20.380056   16.912344   22.396346 H          1 MOL1         0.0960
      13    H9      18.638419   16.771883   22.494949 H          1 MOL1         0.0960
      14    C5      19.470993   17.938280   24.101397 C.3        1 MOL1        -0.1409
      15    H10     18.508574   18.413991   24.332918 H          1 MOL1         0.0960
      16    H11     19.532182   17.043818   24.736836 H          1 MOL1         0.0960
      17    C6      20.629761   18.895498   24.470861 C.3        1 MOL1        -0.1450
      18    H12     20.505745   19.856711   23.956491 H          1 MOL1         0.0960
      19    H13     21.580820   18.467324   24.127693 H          1 MOL1         0.0960
      20    C7      20.727164   19.148361   25.987603 C.3        1 MOL1         0.0172
      21    H14     20.851455   18.197093   26.512037 H          1 MOL1         0.0934
      22    H15     21.602076   19.769916   26.196750 H          1 MOL1         0.0934
      23    N1      19.514603   19.849880   26.567399 N.4        1 MOL1        -0.5956
      24    H16     18.659673   19.300674   26.435355 H          1 MOL1         0.3624
      25    H17     19.358535   20.764131   26.130732 H          1 MOL1         0.3624
      26    H18     19.614572   20.012273   27.575326 H          1 MOL1         0.3624
@<TRIPOS>BOND
    1     1     2    1
    2     1     3    1
    3     1     4    1
    4     1     5    1
    5     5     6    1
    6     5     7    1
    7     5     8    1
    8     8     9    1
    9     8    10    1
   10     8    11    1
   11    11    12    1
   12    11    13    1
   13    11    14    1
   14    14    15    1
   15    14    16    1
   16    14    17    1
   17    17    18    1
   18    17    19    1
   19    17    20    1
   20    20    21    1
   21    20    22    1
   22    20    23    1
   23    23    24    1
   24    23    25    1
   25    23    26    1
@<TRIPOS>SUBSTRUCTURE
       1 MOL1            1 RESIDUE      1      MOL     
@<SCITEGIC>MOL_PROPERTY
VM2 Rank
SciTegic.value.IntegerValue
121

@<SCITEGIC>MOL_PROPERTY
Conf_Id
SciTegic.value.IntegerValue
283

@<SCITEGIC>MOL_PROPERTY
Probability
SciTegic.value.DoubleValue
0.02

@<SCITEGIC>MOL_PROPERTY
Sum Probability
SciTegic.value.DoubleValue
99.57

@<SCITEGIC>MOL_PROPERTY
Delta G
SciTegic.value.DoubleValue
3.649

@<SCITEGIC>MOL_PROPERTY
G
SciTegic.value.DoubleValue
51.911

@<SCITEGIC>MOL_PROPERTY
E
SciTegic.value.DoubleValue
19.080

@<SCITEGIC>MOL_PROPERTY
-TS
SciTegic.value.DoubleValue
32.831

@<SCITEGIC>MOL_PROPERTY
U+W
SciTegic.value.DoubleValue
-2.382

@<SCITEGIC>MOL_PROPERTY
U
SciTegic.value.DoubleValue
51.463

@<SCITEGIC>MOL_PROPERTY
W
SciTegic.value.DoubleValue
-53.845

@<SCITEGIC>MOL_PROPERTY
W(PB)
SciTegic.value.DoubleValue
-56.121

@<SCITEGIC>MOL_PROPERTY
W(SA)
SciTegic.value.DoubleValue
2.276

@<SCITEGIC>MOL_PROPERTY
Valence
SciTegic.value.DoubleValue
5.277

@<SCITEGIC>MOL_PROPERTY
Coulomb
SciTegic.value.DoubleValue
45.445

@<SCITEGIC>MOL_PROPERTY
VdW
SciTegic.value.DoubleValue
0.741

@<SCITEGIC>MOL_PROPERTY
VdW6
SciTegic.value.DoubleValue
-7.943

@<SCITEGIC>MOL_PROPERTY
VdW12
SciTegic.value.DoubleValue
8.684

@<SCITEGIC>MOL_PROPERTY
Bond
SciTegic.value.DoubleValue
0.235

@<SCITEGIC>MOL_PROPERTY
Angle
SciTegic.value.DoubleValue
1.187

@<SCITEGIC>MOL_PROPERTY
Pdih
SciTegic.value.DoubleValue
3.855

@<SCITEGIC>MOL_PROPERTY
Idih
SciTegic.value.DoubleValue
0.000

@<SCITEGIC>MOL_PROPERTY
Tether
SciTegic.value.DoubleValue
0.000

@<TRIPOS>MOLECULE
guest-s14_vm2.mol2 : vm2 ligand conformer 122
          26          25           1
SMALL
USER_CHARGES
 
@<TRIPOS>ATOM
       1    C1      19.192108   20.312733   20.734490 C.3        1 MOL1        -0.2400
       2    H1      19.436498   21.243774   20.206915 H          1 MOL1         0.0971
       3    H2      18.232570   19.950704   20.343008 H          1 MOL1         0.0971
       4    H3      19.053183   20.558271   21.792937 H          1 MOL1         0.0971
       5    C2      20.306696   19.261992   20.520893 C.3        1 MOL1        -0.1385
       6    H4      21.275744   19.659736   20.853048 H          1 MOL1         0.0960
       7    H5      20.405647   19.089382   19.440003 H          1 MOL1         0.0960
       8    C3      20.015309   17.905118   21.212330 C.3        1 MOL1        -0.1409
       9    H6      18.931815   17.731427   21.267198 H          1 MOL1         0.0960
      10    H7      20.410659   17.104087   20.572449 H          1 MOL1         0.0960
      11    C4      20.654095   17.737789   22.615342 C.3        1 MOL1        -0.1409
      12    H8      21.747217   17.807437   22.528793 H          1 MOL1         0.0960
      13    H9      20.439958   16.720301   22.970591 H          1 MOL1         0.0960
      14    C5      20.155719   18.753526   23.669172 C.3        1 MOL1        -0.1409
      15    H10     20.482324   19.763713   23.390071 H          1 MOL1         0.0960
      16    H11     19.057754   18.755941   23.679875 H          1 MOL1         0.0960
      17    C6      20.695908   18.425697   25.081250 C.3        1 MOL1        -0.1450
      18    H12     21.792790   18.382703   25.049714 H          1 MOL1         0.0960
      19    H13     20.352061   17.431111   25.395125 H          1 MOL1         0.0960
      20    C7      20.278619   19.469725   26.134885 C.3        1 MOL1         0.0172
      21    H14     20.756290   19.232561   27.089422 H          1 MOL1         0.0934
      22    H15     20.614577   20.462282   25.822852 H          1 MOL1         0.0934
      23    N1      18.782544   19.532419   26.372638 N.4        1 MOL1        -0.5956
      24    H16     18.539569   20.227042   27.087331 H          1 MOL1         0.3624
      25    H17     18.409912   18.632120   26.691443 H          1 MOL1         0.3624
      26    H18     18.273040   19.787160   25.520977 H          1 MOL1         0.3624
@<TRIPOS>BOND
    1     1     2    1
    2     1     3    1
    3     1     4    1
    4     1     5    1
    5     5     6    1
    6     5     7    1
    7     5     8    1
    8     8     9    1
    9     8    10    1
   10     8    11    1
   11    11    12    1
   12    11    13    1
   13    11    14    1
   14    14    15    1
   15    14    16    1
   16    14    17    1
   17    17    18    1
   18    17    19    1
   19    17    20    1
   20    20    21    1
   21    20    22    1
   22    20    23    1
   23    23    24    1
   24    23    25    1
   25    23    26    1
@<TRIPOS>SUBSTRUCTURE
       1 MOL1            1 RESIDUE      1      MOL     
@<SCITEGIC>MOL_PROPERTY
VM2 Rank
SciTegic.value.IntegerValue
122

@<SCITEGIC>MOL_PROPERTY
Conf_Id
SciTegic.value.IntegerValue
262

@<SCITEGIC>MOL_PROPERTY
Probability
SciTegic.value.DoubleValue
0.02

@<SCITEGIC>MOL_PROPERTY
Sum Probability
SciTegic.value.DoubleValue
99.59

@<SCITEGIC>MOL_PROPERTY
Delta G
SciTegic.value.DoubleValue
3.661

@<SCITEGIC>MOL_PROPERTY
G
SciTegic.value.DoubleValue
51.923

@<SCITEGIC>MOL_PROPERTY
E
SciTegic.value.DoubleValue
19.125

@<SCITEGIC>MOL_PROPERTY
-TS
SciTegic.value.DoubleValue
32.798

@<SCITEGIC>MOL_PROPERTY
U+W
SciTegic.value.DoubleValue
-2.337

@<SCITEGIC>MOL_PROPERTY
U
SciTegic.value.DoubleValue
51.511

@<SCITEGIC>MOL_PROPERTY
W
SciTegic.value.DoubleValue
-53.848

@<SCITEGIC>MOL_PROPERTY
W(PB)
SciTegic.value.DoubleValue
-56.117

@<SCITEGIC>MOL_PROPERTY
W(SA)
SciTegic.value.DoubleValue
2.269

@<SCITEGIC>MOL_PROPERTY
Valence
SciTegic.value.DoubleValue
5.253

@<SCITEGIC>MOL_PROPERTY
Coulomb
SciTegic.value.DoubleValue
45.470

@<SCITEGIC>MOL_PROPERTY
VdW
SciTegic.value.DoubleValue
0.789

@<SCITEGIC>MOL_PROPERTY
VdW6
SciTegic.value.DoubleValue
-7.872

@<SCITEGIC>MOL_PROPERTY
VdW12
SciTegic.value.DoubleValue
8.661

@<SCITEGIC>MOL_PROPERTY
Bond
SciTegic.value.DoubleValue
0.233

@<SCITEGIC>MOL_PROPERTY
Angle
SciTegic.value.DoubleValue
1.235

@<SCITEGIC>MOL_PROPERTY
Pdih
SciTegic.value.DoubleValue
3.785

@<SCITEGIC>MOL_PROPERTY
Idih
SciTegic.value.DoubleValue
0.000

@<SCITEGIC>MOL_PROPERTY
Tether
SciTegic.value.DoubleValue
0.000

@<TRIPOS>MOLECULE
guest-s14_vm2.mol2 : vm2 ligand conformer 123
          26          25           1
SMALL
USER_CHARGES
 
@<TRIPOS>ATOM
       1    C1      19.174503   20.301135   20.733909 C.3        1 MOL1        -0.2400
       2    H1      19.901377   21.052322   20.398633 H          1 MOL1         0.0971
       3    H2      18.247729   20.459085   20.167307 H          1 MOL1         0.0971
       4    H3      18.954254   20.492976   21.789649 H          1 MOL1         0.0971
       5    C2      19.713016   18.870124   20.501109 C.3        1 MOL1        -0.1385
       6    H4      19.883019   18.744400   19.422591 H          1 MOL1         0.0960
       7    H5      18.952331   18.126074   20.775573 H          1 MOL1         0.0960
       8    C3      21.041830   18.582763   21.246609 C.3        1 MOL1        -0.1409
       9    H6      21.652626   17.923968   20.613904 H          1 MOL1         0.0960
      10    H7      21.623505   19.508285   21.357080 H          1 MOL1         0.0960
      11    C4      20.880051   17.886931   22.622885 C.3        1 MOL1        -0.1409
      12    H8      21.882367   17.672472   23.018747 H          1 MOL1         0.0960
      13    H9      20.391703   16.912585   22.483522 H          1 MOL1         0.0960
      14    C5      20.093084   18.712142   23.667093 C.3        1 MOL1        -0.1409
      15    H10     20.520684   19.721598   23.728781 H          1 MOL1         0.0960
      16    H11     19.049873   18.818103   23.342236 H          1 MOL1         0.0960
      17    C6      20.116944   18.043437   25.061907 C.3        1 MOL1        -0.1450
      18    H12     21.150957   17.958500   25.421845 H          1 MOL1         0.0960
      19    H13     19.728141   17.019606   24.980697 H          1 MOL1         0.0960
      20    C7      19.272085   18.805178   26.101252 C.3        1 MOL1         0.0172
      21    H14     18.242920   18.896404   25.743625 H          1 MOL1         0.0934
      22    H15     19.258524   18.243690   27.039391 H          1 MOL1         0.0934
      23    N1      19.789487   20.197290   26.406235 N.4        1 MOL1        -0.5956
      24    H16     20.747898   20.175848   26.769579 H          1 MOL1         0.3624
      25    H17     19.213105   20.671854   27.109725 H          1 MOL1         0.3624
      26    H18     19.794659   20.791765   25.571736 H          1 MOL1         0.3624
@<TRIPOS>BOND
    1     1     2    1
    2     1     3    1
    3     1     4    1
    4     1     5    1
    5     5     6    1
    6     5     7    1
    7     5     8    1
    8     8     9    1
    9     8    10    1
   10     8    11    1
   11    11    12    1
   12    11    13    1
   13    11    14    1
   14    14    15    1
   15    14    16    1
   16    14    17    1
   17    17    18    1
   18    17    19    1
   19    17    20    1
   20    20    21    1
   21    20    22    1
   22    20    23    1
   23    23    24    1
   24    23    25    1
   25    23    26    1
@<TRIPOS>SUBSTRUCTURE
       1 MOL1            1 RESIDUE      1      MOL     
@<SCITEGIC>MOL_PROPERTY
VM2 Rank
SciTegic.value.IntegerValue
123

@<SCITEGIC>MOL_PROPERTY
Conf_Id
SciTegic.value.IntegerValue
857

@<SCITEGIC>MOL_PROPERTY
Probability
SciTegic.value.DoubleValue
0.02

@<SCITEGIC>MOL_PROPERTY
Sum Probability
SciTegic.value.DoubleValue
99.60

@<SCITEGIC>MOL_PROPERTY
Delta G
SciTegic.value.DoubleValue
3.691

@<SCITEGIC>MOL_PROPERTY
G
SciTegic.value.DoubleValue
51.952

@<SCITEGIC>MOL_PROPERTY
E
SciTegic.value.DoubleValue
19.155

@<SCITEGIC>MOL_PROPERTY
-TS
SciTegic.value.DoubleValue
32.798

@<SCITEGIC>MOL_PROPERTY
U+W
SciTegic.value.DoubleValue
-2.307

@<SCITEGIC>MOL_PROPERTY
U
SciTegic.value.DoubleValue
51.512

@<SCITEGIC>MOL_PROPERTY
W
SciTegic.value.DoubleValue
-53.819

@<SCITEGIC>MOL_PROPERTY
W(PB)
SciTegic.value.DoubleValue
-56.098

@<SCITEGIC>MOL_PROPERTY
W(SA)
SciTegic.value.DoubleValue
2.279

@<SCITEGIC>MOL_PROPERTY
Valence
SciTegic.value.DoubleValue
5.253

@<SCITEGIC>MOL_PROPERTY
Coulomb
SciTegic.value.DoubleValue
45.470

@<SCITEGIC>MOL_PROPERTY
VdW
SciTegic.value.DoubleValue
0.789

@<SCITEGIC>MOL_PROPERTY
VdW6
SciTegic.value.DoubleValue
-7.872

@<SCITEGIC>MOL_PROPERTY
VdW12
SciTegic.value.DoubleValue
8.661

@<SCITEGIC>MOL_PROPERTY
Bond
SciTegic.value.DoubleValue
0.233

@<SCITEGIC>MOL_PROPERTY
Angle
SciTegic.value.DoubleValue
1.235

@<SCITEGIC>MOL_PROPERTY
Pdih
SciTegic.value.DoubleValue
3.785

@<SCITEGIC>MOL_PROPERTY
Idih
SciTegic.value.DoubleValue
0.000

@<SCITEGIC>MOL_PROPERTY
Tether
SciTegic.value.DoubleValue
0.000

@<TRIPOS>MOLECULE
guest-s14_vm2.mol2 : vm2 ligand conformer 124
          26          25           1
SMALL
USER_CHARGES
 
@<TRIPOS>ATOM
       1    C1      18.540196   18.528066   20.925954 C.3        1 MOL1        -0.2400
       2    H1      18.621085   17.815859   21.756282 H          1 MOL1         0.0971
       3    H2      18.054530   19.441496   21.292807 H          1 MOL1         0.0971
       4    H3      17.882288   18.077695   20.171504 H          1 MOL1         0.0971
       5    C2      19.924949   18.838917   20.317207 C.3        1 MOL1        -0.1385
       6    H4      19.781638   19.413757   19.391584 H          1 MOL1         0.0960
       7    H5      20.410961   17.899363   20.019290 H          1 MOL1         0.0960
       8    C3      20.869083   19.638714   21.250951 C.3        1 MOL1        -0.1409
       9    H6      21.793905   19.838761   20.692308 H          1 MOL1         0.0960
      10    H7      20.437026   20.624793   21.470197 H          1 MOL1         0.0960
      11    C4      21.248138   18.911587   22.567494 C.3        1 MOL1        -0.1409
      12    H8      22.288190   19.163974   22.816492 H          1 MOL1         0.0960
      13    H9      21.227780   17.823604   22.415716 H          1 MOL1         0.0960
      14    C5      20.354730   19.306943   23.768704 C.3        1 MOL1        -0.1409
      15    H10     20.439211   20.388385   23.944122 H          1 MOL1         0.0960
      16    H11     19.302390   19.108865   23.537138 H          1 MOL1         0.0960
      17    C6      20.756633   18.546996   25.054810 C.3        1 MOL1        -0.1450
      18    H12     21.818384   18.728900   25.268203 H          1 MOL1         0.0960
      19    H13     20.648755   17.464944   24.901567 H          1 MOL1         0.0960
      20    C7      19.931893   18.977094   26.283315 C.3        1 MOL1         0.0172
      21    H14     20.316960   18.471887   27.173283 H          1 MOL1         0.0934
      22    H15     20.030793   20.055485   26.433955 H          1 MOL1         0.0934
      23    N1      18.455378   18.650683   26.172565 N.4        1 MOL1        -0.5956
      24    H16     17.938699   18.937009   27.011264 H          1 MOL1         0.3624
      25    H17     18.295943   17.645218   26.051629 H          1 MOL1         0.3624
      26    H18     18.020259   19.125343   25.375589 H          1 MOL1         0.3624
@<TRIPOS>BOND
    1     1     2    1
    2     1     3    1
    3     1     4    1
    4     1     5    1
    5     5     6    1
    6     5     7    1
    7     5     8    1
    8     8     9    1
    9     8    10    1
   10     8    11    1
   11    11    12    1
   12    11    13    1
   13    11    14    1
   14    14    15    1
   15    14    16    1
   16    14    17    1
   17    17    18    1
   18    17    19    1
   19    17    20    1
   20    20    21    1
   21    20    22    1
   22    20    23    1
   23    23    24    1
   24    23    25    1
   25    23    26    1
@<TRIPOS>SUBSTRUCTURE
       1 MOL1            1 RESIDUE      1      MOL     
@<SCITEGIC>MOL_PROPERTY
VM2 Rank
SciTegic.value.IntegerValue
124

@<SCITEGIC>MOL_PROPERTY
Conf_Id
SciTegic.value.IntegerValue
1323

@<SCITEGIC>MOL_PROPERTY
Probability
SciTegic.value.DoubleValue
0.02

@<SCITEGIC>MOL_PROPERTY
Sum Probability
SciTegic.value.DoubleValue
99.62

@<SCITEGIC>MOL_PROPERTY
Delta G
SciTegic.value.DoubleValue
3.697

@<SCITEGIC>MOL_PROPERTY
G
SciTegic.value.DoubleValue
51.958

@<SCITEGIC>MOL_PROPERTY
E
SciTegic.value.DoubleValue
19.142

@<SCITEGIC>MOL_PROPERTY
-TS
SciTegic.value.DoubleValue
32.817

@<SCITEGIC>MOL_PROPERTY
U+W
SciTegic.value.DoubleValue
-2.320

@<SCITEGIC>MOL_PROPERTY
U
SciTegic.value.DoubleValue
51.663

@<SCITEGIC>MOL_PROPERTY
W
SciTegic.value.DoubleValue
-53.983

@<SCITEGIC>MOL_PROPERTY
W(PB)
SciTegic.value.DoubleValue
-56.239

@<SCITEGIC>MOL_PROPERTY
W(SA)
SciTegic.value.DoubleValue
2.256

@<SCITEGIC>MOL_PROPERTY
Valence
SciTegic.value.DoubleValue
5.225

@<SCITEGIC>MOL_PROPERTY
Coulomb
SciTegic.value.DoubleValue
45.676

@<SCITEGIC>MOL_PROPERTY
VdW
SciTegic.value.DoubleValue
0.762

@<SCITEGIC>MOL_PROPERTY
VdW6
SciTegic.value.DoubleValue
-7.910

@<SCITEGIC>MOL_PROPERTY
VdW12
SciTegic.value.DoubleValue
8.672

@<SCITEGIC>MOL_PROPERTY
Bond
SciTegic.value.DoubleValue
0.235

@<SCITEGIC>MOL_PROPERTY
Angle
SciTegic.value.DoubleValue
1.176

@<SCITEGIC>MOL_PROPERTY
Pdih
SciTegic.value.DoubleValue
3.813

@<SCITEGIC>MOL_PROPERTY
Idih
SciTegic.value.DoubleValue
0.000

@<SCITEGIC>MOL_PROPERTY
Tether
SciTegic.value.DoubleValue
0.000

@<TRIPOS>MOLECULE
guest-s14_vm2.mol2 : vm2 ligand conformer 125
          26          25           1
SMALL
USER_CHARGES
 
@<TRIPOS>ATOM
       1    C1      19.769190   20.179686   20.183018 C.3        1 MOL1        -0.2400
       2    H1      19.256944   20.617558   21.046579 H          1 MOL1         0.0971
       3    H2      20.291052   20.991535   19.660084 H          1 MOL1         0.0971
       4    H3      19.004960   19.782797   19.502233 H          1 MOL1         0.0971
       5    C2      20.767870   19.073586   20.596503 C.3        1 MOL1        -0.1385
       6    H4      21.564835   19.494158   21.225423 H          1 MOL1         0.0960
       7    H5      21.262945   18.708097   19.685883 H          1 MOL1         0.0960
       8    C3      20.096958   17.870951   21.309054 C.3        1 MOL1        -0.1409
       9    H6      19.068901   17.738122   20.944914 H          1 MOL1         0.0960
      10    H7      20.634129   16.958219   21.016174 H          1 MOL1         0.0960
      11    C4      20.110284   17.941550   22.857929 C.3        1 MOL1        -0.1409
      12    H8      21.151311   17.972466   23.206596 H          1 MOL1         0.0960
      13    H9      19.683934   17.006819   23.247498 H          1 MOL1         0.0960
      14    C5      19.323520   19.137349   23.447779 C.3        1 MOL1        -0.1409
      15    H10     19.831773   20.077379   23.196343 H          1 MOL1         0.0960
      16    H11     18.327395   19.179969   22.986287 H          1 MOL1         0.0960
      17    C6      19.157654   19.052627   24.983225 C.3        1 MOL1        -0.1450
      18    H12     18.617936   18.133118   25.246242 H          1 MOL1         0.0960
      19    H13     18.534026   19.890790   25.321570 H          1 MOL1         0.0960
      20    C7      20.504892   19.093319   25.728490 C.3        1 MOL1         0.0172
      21    H14     21.118895   18.239889   25.429379 H          1 MOL1         0.0934
      22    H15     21.040640   20.010706   25.470129 H          1 MOL1         0.0934
      23    N1      20.350633   19.049933   27.235002 N.4        1 MOL1        -0.5956
      24    H16     19.804524   19.843428   27.586168 H          1 MOL1         0.3624
      25    H17     21.258400   19.077947   27.712017 H          1 MOL1         0.3624
      26    H18     19.876224   18.195902   27.546050 H          1 MOL1         0.3624
@<TRIPOS>BOND
    1     1     2    1
    2     1     3    1
    3     1     4    1
    4     1     5    1
    5     5     6    1
    6     5     7    1
    7     5     8    1
    8     8     9    1
    9     8    10    1
   10     8    11    1
   11    11    12    1
   12    11    13    1
   13    11    14    1
   14    14    15    1
   15    14    16    1
   16    14    17    1
   17    17    18    1
   18    17    19    1
   19    17    20    1
   20    20    21    1
   21    20    22    1
   22    20    23    1
   23    23    24    1
   24    23    25    1
   25    23    26    1
@<TRIPOS>SUBSTRUCTURE
       1 MOL1            1 RESIDUE      1      MOL     
@<SCITEGIC>MOL_PROPERTY
VM2 Rank
SciTegic.value.IntegerValue
125

@<SCITEGIC>MOL_PROPERTY
Conf_Id
SciTegic.value.IntegerValue
751

@<SCITEGIC>MOL_PROPERTY
Probability
SciTegic.value.DoubleValue
0.02

@<SCITEGIC>MOL_PROPERTY
Sum Probability
SciTegic.value.DoubleValue
99.63

@<SCITEGIC>MOL_PROPERTY
Delta G
SciTegic.value.DoubleValue
3.714

@<SCITEGIC>MOL_PROPERTY
G
SciTegic.value.DoubleValue
51.976

@<SCITEGIC>MOL_PROPERTY
E
SciTegic.value.DoubleValue
19.186

@<SCITEGIC>MOL_PROPERTY
-TS
SciTegic.value.DoubleValue
32.790

@<SCITEGIC>MOL_PROPERTY
U+W
SciTegic.value.DoubleValue
-2.276

@<SCITEGIC>MOL_PROPERTY
U
SciTegic.value.DoubleValue
51.296

@<SCITEGIC>MOL_PROPERTY
W
SciTegic.value.DoubleValue
-53.572

@<SCITEGIC>MOL_PROPERTY
W(PB)
SciTegic.value.DoubleValue
-55.840

@<SCITEGIC>MOL_PROPERTY
W(SA)
SciTegic.value.DoubleValue
2.268

@<SCITEGIC>MOL_PROPERTY
Valence
SciTegic.value.DoubleValue
5.428

@<SCITEGIC>MOL_PROPERTY
Coulomb
SciTegic.value.DoubleValue
45.118

@<SCITEGIC>MOL_PROPERTY
VdW
SciTegic.value.DoubleValue
0.751

@<SCITEGIC>MOL_PROPERTY
VdW6
SciTegic.value.DoubleValue
-7.913

@<SCITEGIC>MOL_PROPERTY
VdW12
SciTegic.value.DoubleValue
8.664

@<SCITEGIC>MOL_PROPERTY
Bond
SciTegic.value.DoubleValue
0.235

@<SCITEGIC>MOL_PROPERTY
Angle
SciTegic.value.DoubleValue
1.292

@<SCITEGIC>MOL_PROPERTY
Pdih
SciTegic.value.DoubleValue
3.901

@<SCITEGIC>MOL_PROPERTY
Idih
SciTegic.value.DoubleValue
0.000

@<SCITEGIC>MOL_PROPERTY
Tether
SciTegic.value.DoubleValue
0.000

@<TRIPOS>MOLECULE
guest-s14_vm2.mol2 : vm2 ligand conformer 126
          26          25           1
SMALL
USER_CHARGES
 
@<TRIPOS>ATOM
       1    C1      20.665863   20.003591   19.819438 C.3        1 MOL1        -0.2400
       2    H1      20.195827   20.946450   20.128110 H          1 MOL1         0.0971
       3    H2      21.680226   20.232142   19.467503 H          1 MOL1         0.0971
       4    H3      20.097872   19.600022   18.971057 H          1 MOL1         0.0971
       5    C2      20.708388   18.996692   20.988293 C.3        1 MOL1        -0.1385
       6    H4      21.318484   19.412596   21.799132 H          1 MOL1         0.0960
       7    H5      21.214490   18.079159   20.656988 H          1 MOL1         0.0960
       8    C3      19.287264   18.649724   21.494122 C.3        1 MOL1        -0.1409
       9    H6      18.742352   19.564219   21.765897 H          1 MOL1         0.0960
      10    H7      18.728806   18.201545   20.660629 H          1 MOL1         0.0960
      11    C4      19.281884   17.651926   22.681629 C.3        1 MOL1        -0.1409
      12    H8      20.168273   17.004042   22.639575 H          1 MOL1         0.0960
      13    H9      18.420234   16.980920   22.560091 H          1 MOL1         0.0960
      14    C5      19.167419   18.308079   24.082008 C.3        1 MOL1        -0.1409
      15    H10     18.222038   18.864322   24.147430 H          1 MOL1         0.0960
      16    H11     19.100994   17.504425   24.827060 H          1 MOL1         0.0960
      17    C6      20.341914   19.249842   24.443257 C.3        1 MOL1        -0.1450
      18    H12     20.348998   20.105076   23.756286 H          1 MOL1         0.0960
      19    H13     21.299165   18.727404   24.315342 H          1 MOL1         0.0960
      20    C7      20.243380   19.800164   25.879259 C.3        1 MOL1         0.0172
      21    H14     21.034010   20.538425   26.038712 H          1 MOL1         0.0934
      22    H15     19.279707   20.297724   26.017724 H          1 MOL1         0.0934
      23    N1      20.384889   18.738983   26.952995 N.4        1 MOL1        -0.5956
      24    H16     20.329456   19.141069   27.895095 H          1 MOL1         0.3624
      25    H17     21.283542   18.249821   26.888778 H          1 MOL1         0.3624
      26    H18     19.648389   18.029828   26.886101 H          1 MOL1         0.3624
@<TRIPOS>BOND
    1     1     2    1
    2     1     3    1
    3     1     4    1
    4     1     5    1
    5     5     6    1
    6     5     7    1
    7     5     8    1
    8     8     9    1
    9     8    10    1
   10     8    11    1
   11    11    12    1
   12    11    13    1
   13    11    14    1
   14    14    15    1
   15    14    16    1
   16    14    17    1
   17    17    18    1
   18    17    19    1
   19    17    20    1
   20    20    21    1
   21    20    22    1
   22    20    23    1
   23    23    24    1
   24    23    25    1
   25    23    26    1
@<TRIPOS>SUBSTRUCTURE
       1 MOL1            1 RESIDUE      1      MOL     
@<SCITEGIC>MOL_PROPERTY
VM2 Rank
SciTegic.value.IntegerValue
126

@<SCITEGIC>MOL_PROPERTY
Conf_Id
SciTegic.value.IntegerValue
990

@<SCITEGIC>MOL_PROPERTY
Probability
SciTegic.value.DoubleValue
0.02

@<SCITEGIC>MOL_PROPERTY
Sum Probability
SciTegic.value.DoubleValue
99.65

@<SCITEGIC>MOL_PROPERTY
Delta G
SciTegic.value.DoubleValue
3.720

@<SCITEGIC>MOL_PROPERTY
G
SciTegic.value.DoubleValue
51.981

@<SCITEGIC>MOL_PROPERTY
E
SciTegic.value.DoubleValue
19.156

@<SCITEGIC>MOL_PROPERTY
-TS
SciTegic.value.DoubleValue
32.825

@<SCITEGIC>MOL_PROPERTY
U+W
SciTegic.value.DoubleValue
-2.306

@<SCITEGIC>MOL_PROPERTY
U
SciTegic.value.DoubleValue
51.407

@<SCITEGIC>MOL_PROPERTY
W
SciTegic.value.DoubleValue
-53.713

@<SCITEGIC>MOL_PROPERTY
W(PB)
SciTegic.value.DoubleValue
-55.993

@<SCITEGIC>MOL_PROPERTY
W(SA)
SciTegic.value.DoubleValue
2.280

@<SCITEGIC>MOL_PROPERTY
Valence
SciTegic.value.DoubleValue
5.338

@<SCITEGIC>MOL_PROPERTY
Coulomb
SciTegic.value.DoubleValue
45.268

@<SCITEGIC>MOL_PROPERTY
VdW
SciTegic.value.DoubleValue
0.801

@<SCITEGIC>MOL_PROPERTY
VdW6
SciTegic.value.DoubleValue
-7.902

@<SCITEGIC>MOL_PROPERTY
VdW12
SciTegic.value.DoubleValue
8.703

@<SCITEGIC>MOL_PROPERTY
Bond
SciTegic.value.DoubleValue
0.239

@<SCITEGIC>MOL_PROPERTY
Angle
SciTegic.value.DoubleValue
1.230

@<SCITEGIC>MOL_PROPERTY
Pdih
SciTegic.value.DoubleValue
3.868

@<SCITEGIC>MOL_PROPERTY
Idih
SciTegic.value.DoubleValue
0.000

@<SCITEGIC>MOL_PROPERTY
Tether
SciTegic.value.DoubleValue
0.000

@<TRIPOS>MOLECULE
guest-s14_vm2.mol2 : vm2 ligand conformer 127
          26          25           1
SMALL
USER_CHARGES
 
@<TRIPOS>ATOM
       1    C1      18.977084   19.186903   19.725836 C.3        1 MOL1        -0.2400
       2    H1      19.601319   18.718872   18.953505 H          1 MOL1         0.0971
       3    H2      17.940198   18.866922   19.560018 H          1 MOL1         0.0971
       4    H3      19.020284   20.275123   19.587447 H          1 MOL1         0.0971
       5    C2      19.450742   18.788612   21.139774 C.3        1 MOL1        -0.1385
       6    H4      19.371101   17.698935   21.257136 H          1 MOL1         0.0960
       7    H5      18.779523   19.245089   21.879131 H          1 MOL1         0.0960
       8    C3      20.906216   19.238612   21.401368 C.3        1 MOL1        -0.1409
       9    H6      21.544497   18.872422   20.585389 H          1 MOL1         0.0960
      10    H7      20.961334   20.335300   21.362862 H          1 MOL1         0.0960
      11    C4      21.500556   18.740012   22.744030 C.3        1 MOL1        -0.1409
      12    H8      22.544336   19.080540   22.789146 H          1 MOL1         0.0960
      13    H9      21.547784   17.642314   22.752076 H          1 MOL1         0.0960
      14    C5      20.768562   19.257529   24.009764 C.3        1 MOL1        -0.1409
      15    H10     21.521126   19.448099   24.786546 H          1 MOL1         0.0960
      16    H11     20.294171   20.226505   23.801342 H          1 MOL1         0.0960
      17    C6      19.726989   18.255256   24.569338 C.3        1 MOL1        -0.1450
      18    H12     20.228211   17.325079   24.868322 H          1 MOL1         0.0960
      19    H13     19.007882   17.979333   23.789932 H          1 MOL1         0.0960
      20    C7      18.943743   18.821974   25.769173 C.3        1 MOL1         0.0172
      21    H14     18.446653   19.751273   25.478131 H          1 MOL1         0.0934
      22    H15     18.175786   18.105014   26.072105 H          1 MOL1         0.0934
      23    N1      19.807107   19.110102   26.981718 N.4        1 MOL1        -0.5956
      24    H16     20.284845   18.267618   27.317833 H          1 MOL1         0.3624
      25    H17     19.253845   19.473521   27.765371 H          1 MOL1         0.3624
      26    H18     20.529748   19.806879   26.776223 H          1 MOL1         0.3624
@<TRIPOS>BOND
    1     1     2    1
    2     1     3    1
    3     1     4    1
    4     1     5    1
    5     5     6    1
    6     5     7    1
    7     5     8    1
    8     8     9    1
    9     8    10    1
   10     8    11    1
   11    11    12    1
   12    11    13    1
   13    11    14    1
   14    14    15    1
   15    14    16    1
   16    14    17    1
   17    17    18    1
   18    17    19    1
   19    17    20    1
   20    20    21    1
   21    20    22    1
   22    20    23    1
   23    23    24    1
   24    23    25    1
   25    23    26    1
@<TRIPOS>SUBSTRUCTURE
       1 MOL1            1 RESIDUE      1      MOL     
@<SCITEGIC>MOL_PROPERTY
VM2 Rank
SciTegic.value.IntegerValue
127

@<SCITEGIC>MOL_PROPERTY
Conf_Id
SciTegic.value.IntegerValue
1246

@<SCITEGIC>MOL_PROPERTY
Probability
SciTegic.value.DoubleValue
0.01

@<SCITEGIC>MOL_PROPERTY
Sum Probability
SciTegic.value.DoubleValue
99.66

@<SCITEGIC>MOL_PROPERTY
Delta G
SciTegic.value.DoubleValue
3.727

@<SCITEGIC>MOL_PROPERTY
G
SciTegic.value.DoubleValue
51.988

@<SCITEGIC>MOL_PROPERTY
E
SciTegic.value.DoubleValue
19.143

@<SCITEGIC>MOL_PROPERTY
-TS
SciTegic.value.DoubleValue
32.845

@<SCITEGIC>MOL_PROPERTY
U+W
SciTegic.value.DoubleValue
-2.318

@<SCITEGIC>MOL_PROPERTY
U
SciTegic.value.DoubleValue
51.425

@<SCITEGIC>MOL_PROPERTY
W
SciTegic.value.DoubleValue
-53.744

@<SCITEGIC>MOL_PROPERTY
W(PB)
SciTegic.value.DoubleValue
-56.027

@<SCITEGIC>MOL_PROPERTY
W(SA)
SciTegic.value.DoubleValue
2.283

@<SCITEGIC>MOL_PROPERTY
Valence
SciTegic.value.DoubleValue
5.322

@<SCITEGIC>MOL_PROPERTY
Coulomb
SciTegic.value.DoubleValue
45.311

@<SCITEGIC>MOL_PROPERTY
VdW
SciTegic.value.DoubleValue
0.792

@<SCITEGIC>MOL_PROPERTY
VdW6
SciTegic.value.DoubleValue
-7.911

@<SCITEGIC>MOL_PROPERTY
VdW12
SciTegic.value.DoubleValue
8.703

@<SCITEGIC>MOL_PROPERTY
Bond
SciTegic.value.DoubleValue
0.240

@<SCITEGIC>MOL_PROPERTY
Angle
SciTegic.value.DoubleValue
1.177

@<SCITEGIC>MOL_PROPERTY
Pdih
SciTegic.value.DoubleValue
3.905

@<SCITEGIC>MOL_PROPERTY
Idih
SciTegic.value.DoubleValue
0.000

@<SCITEGIC>MOL_PROPERTY
Tether
SciTegic.value.DoubleValue
0.000

@<TRIPOS>MOLECULE
guest-s14_vm2.mol2 : vm2 ligand conformer 128
          26          25           1
SMALL
USER_CHARGES
 
@<TRIPOS>ATOM
       1    C1      20.340593   20.086641   19.771410 C.3        1 MOL1        -0.2400
       2    H1      19.330369   20.479799   19.597869 H          1 MOL1         0.0971
       3    H2      21.049019   20.918264   19.663923 H          1 MOL1         0.0971
       4    H3      20.561583   19.352587   18.985571 H          1 MOL1         0.0971
       5    C2      20.454940   19.451187   21.173314 C.3        1 MOL1        -0.1385
       6    H4      20.264494   20.224860   21.928770 H          1 MOL1         0.0960
       7    H5      21.481784   19.091614   21.327622 H          1 MOL1         0.0960
       8    C3      19.458447   18.283252   21.352942 C.3        1 MOL1        -0.1409
       9    H6      18.431112   18.665670   21.278196 H          1 MOL1         0.0960
      10    H7      19.582510   17.577696   20.519805 H          1 MOL1         0.0960
      11    C4      19.620832   17.499714   22.681206 C.3        1 MOL1        -0.1409
      12    H8      20.610354   17.023778   22.720792 H          1 MOL1         0.0960
      13    H9      18.896458   16.673545   22.667240 H          1 MOL1         0.0960
      14    C5      19.373613   18.337181   23.963101 C.3        1 MOL1        -0.1409
      15    H10     18.679325   19.161057   23.747249 H          1 MOL1         0.0960
      16    H11     18.867065   17.697096   24.697785 H          1 MOL1         0.0960
      17    C6      20.676922   18.882036   24.601118 C.3        1 MOL1        -0.1450
      18    H12     21.248831   19.457888   23.864884 H          1 MOL1         0.0960
      19    H13     21.320843   18.046015   24.904889 H          1 MOL1         0.0960
      20    C7      20.407733   19.787936   25.818135 C.3        1 MOL1         0.0172
      21    H14     21.353549   20.201741   26.178348 H          1 MOL1         0.0934
      22    H15     19.762581   20.619542   25.522146 H          1 MOL1         0.0934
      23    N1      19.747920   19.071053   26.979774 N.4        1 MOL1        -0.5956
      24    H16     18.833909   18.687890   26.719569 H          1 MOL1         0.3624
      25    H17     19.594603   19.698401   27.776776 H          1 MOL1         0.3624
      26    H18     20.318840   18.290069   27.319037 H          1 MOL1         0.3624
@<TRIPOS>BOND
    1     1     2    1
    2     1     3    1
    3     1     4    1
    4     1     5    1
    5     5     6    1
    6     5     7    1
    7     5     8    1
    8     8     9    1
    9     8    10    1
   10     8    11    1
   11    11    12    1
   12    11    13    1
   13    11    14    1
   14    14    15    1
   15    14    16    1
   16    14    17    1
   17    17    18    1
   18    17    19    1
   19    17    20    1
   20    20    21    1
   21    20    22    1
   22    20    23    1
   23    23    24    1
   24    23    25    1
   25    23    26    1
@<TRIPOS>SUBSTRUCTURE
       1 MOL1            1 RESIDUE      1      MOL     
@<SCITEGIC>MOL_PROPERTY
VM2 Rank
SciTegic.value.IntegerValue
128

@<SCITEGIC>MOL_PROPERTY
Conf_Id
SciTegic.value.IntegerValue
1244

@<SCITEGIC>MOL_PROPERTY
Probability
SciTegic.value.DoubleValue
0.01

@<SCITEGIC>MOL_PROPERTY
Sum Probability
SciTegic.value.DoubleValue
99.68

@<SCITEGIC>MOL_PROPERTY
Delta G
SciTegic.value.DoubleValue
3.730

@<SCITEGIC>MOL_PROPERTY
G
SciTegic.value.DoubleValue
51.991

@<SCITEGIC>MOL_PROPERTY
E
SciTegic.value.DoubleValue
19.146

@<SCITEGIC>MOL_PROPERTY
-TS
SciTegic.value.DoubleValue
32.845

@<SCITEGIC>MOL_PROPERTY
U+W
SciTegic.value.DoubleValue
-2.316

@<SCITEGIC>MOL_PROPERTY
U
SciTegic.value.DoubleValue
51.425

@<SCITEGIC>MOL_PROPERTY
W
SciTegic.value.DoubleValue
-53.741

@<SCITEGIC>MOL_PROPERTY
W(PB)
SciTegic.value.DoubleValue
-56.025

@<SCITEGIC>MOL_PROPERTY
W(SA)
SciTegic.value.DoubleValue
2.284

@<SCITEGIC>MOL_PROPERTY
Valence
SciTegic.value.DoubleValue
5.323

@<SCITEGIC>MOL_PROPERTY
Coulomb
SciTegic.value.DoubleValue
45.311

@<SCITEGIC>MOL_PROPERTY
VdW
SciTegic.value.DoubleValue
0.792

@<SCITEGIC>MOL_PROPERTY
VdW6
SciTegic.value.DoubleValue
-7.911

@<SCITEGIC>MOL_PROPERTY
VdW12
SciTegic.value.DoubleValue
8.703

@<SCITEGIC>MOL_PROPERTY
Bond
SciTegic.value.DoubleValue
0.240

@<SCITEGIC>MOL_PROPERTY
Angle
SciTegic.value.DoubleValue
1.176

@<SCITEGIC>MOL_PROPERTY
Pdih
SciTegic.value.DoubleValue
3.906

@<SCITEGIC>MOL_PROPERTY
Idih
SciTegic.value.DoubleValue
0.000

@<SCITEGIC>MOL_PROPERTY
Tether
SciTegic.value.DoubleValue
0.000

@<TRIPOS>MOLECULE
guest-s14_vm2.mol2 : vm2 ligand conformer 129
          26          25           1
SMALL
USER_CHARGES
 
@<TRIPOS>ATOM
       1    C1      18.634686   19.393036   20.772747 C.3        1 MOL1        -0.2400
       2    H1      17.814144   19.249448   20.057936 H          1 MOL1         0.0971
       3    H2      18.241519   19.167233   21.771554 H          1 MOL1         0.0971
       4    H3      18.926371   20.450761   20.741365 H          1 MOL1         0.0971
       5    C2      19.825259   18.475661   20.418412 C.3        1 MOL1        -0.1385
       6    H4      20.073207   18.614553   19.356816 H          1 MOL1         0.0960
       7    H5      19.519610   17.425376   20.524231 H          1 MOL1         0.0960
       8    C3      21.102300   18.732311   21.258773 C.3        1 MOL1        -0.1409
       9    H6      21.884124   18.056267   20.885797 H          1 MOL1         0.0960
      10    H7      21.477557   19.748273   21.074298 H          1 MOL1         0.0960
      11    C4      20.937104   18.486099   22.781209 C.3        1 MOL1        -0.1409
      12    H8      21.878015   18.072295   23.169504 H          1 MOL1         0.0960
      13    H9      20.173795   17.715186   22.950178 H          1 MOL1         0.0960
      14    C5      20.611410   19.774194   23.580721 C.3        1 MOL1        -0.1409
      15    H10     21.404643   20.513940   23.405485 H          1 MOL1         0.0960
      16    H11     19.682900   20.231064   23.218250 H          1 MOL1         0.0960
      17    C6      20.495271   19.527330   25.103060 C.3        1 MOL1        -0.1450
      18    H12     20.370021   20.492395   25.611872 H          1 MOL1         0.0960
      19    H13     21.430468   19.092132   25.479851 H          1 MOL1         0.0960
      20    C7      19.312447   18.610242   25.466613 C.3        1 MOL1         0.0172
      21    H14     18.381703   19.044387   25.091637 H          1 MOL1         0.0934
      22    H15     19.447029   17.630058   25.002191 H          1 MOL1         0.0934
      23    N1      19.162522   18.400126   26.959466 N.4        1 MOL1        -0.5956
      24    H16     19.004034   19.283256   27.455592 H          1 MOL1         0.3624
      25    H17     19.997054   17.968866   27.370264 H          1 MOL1         0.3624
      26    H18     18.370103   17.787269   27.180440 H          1 MOL1         0.3624
@<TRIPOS>BOND
    1     1     2    1
    2     1     3    1
    3     1     4    1
    4     1     5    1
    5     5     6    1
    6     5     7    1
    7     5     8    1
    8     8     9    1
    9     8    10    1
   10     8    11    1
   11    11    12    1
   12    11    13    1
   13    11    14    1
   14    14    15    1
   15    14    16    1
   16    14    17    1
   17    17    18    1
   18    17    19    1
   19    17    20    1
   20    20    21    1
   21    20    22    1
   22    20    23    1
   23    23    24    1
   24    23    25    1
   25    23    26    1
@<TRIPOS>SUBSTRUCTURE
       1 MOL1            1 RESIDUE      1      MOL     
@<SCITEGIC>MOL_PROPERTY
VM2 Rank
SciTegic.value.IntegerValue
129

@<SCITEGIC>MOL_PROPERTY
Conf_Id
SciTegic.value.IntegerValue
556

@<SCITEGIC>MOL_PROPERTY
Probability
SciTegic.value.DoubleValue
0.01

@<SCITEGIC>MOL_PROPERTY
Sum Probability
SciTegic.value.DoubleValue
99.69

@<SCITEGIC>MOL_PROPERTY
Delta G
SciTegic.value.DoubleValue
3.764

@<SCITEGIC>MOL_PROPERTY
G
SciTegic.value.DoubleValue
52.026

@<SCITEGIC>MOL_PROPERTY
E
SciTegic.value.DoubleValue
19.238

@<SCITEGIC>MOL_PROPERTY
-TS
SciTegic.value.DoubleValue
32.788

@<SCITEGIC>MOL_PROPERTY
U+W
SciTegic.value.DoubleValue
-2.224

@<SCITEGIC>MOL_PROPERTY
U
SciTegic.value.DoubleValue
51.443

@<SCITEGIC>MOL_PROPERTY
W
SciTegic.value.DoubleValue
-53.667

@<SCITEGIC>MOL_PROPERTY
W(PB)
SciTegic.value.DoubleValue
-55.926

@<SCITEGIC>MOL_PROPERTY
W(SA)
SciTegic.value.DoubleValue
2.259

@<SCITEGIC>MOL_PROPERTY
Valence
SciTegic.value.DoubleValue
5.420

@<SCITEGIC>MOL_PROPERTY
Coulomb
SciTegic.value.DoubleValue
45.330

@<SCITEGIC>MOL_PROPERTY
VdW
SciTegic.value.DoubleValue
0.692

@<SCITEGIC>MOL_PROPERTY
VdW6
SciTegic.value.DoubleValue
-8.008

@<SCITEGIC>MOL_PROPERTY
VdW12
SciTegic.value.DoubleValue
8.700

@<SCITEGIC>MOL_PROPERTY
Bond
SciTegic.value.DoubleValue
0.240

@<SCITEGIC>MOL_PROPERTY
Angle
SciTegic.value.DoubleValue
1.285

@<SCITEGIC>MOL_PROPERTY
Pdih
SciTegic.value.DoubleValue
3.895

@<SCITEGIC>MOL_PROPERTY
Idih
SciTegic.value.DoubleValue
0.000

@<SCITEGIC>MOL_PROPERTY
Tether
SciTegic.value.DoubleValue
0.000

@<TRIPOS>MOLECULE
guest-s14_vm2.mol2 : vm2 ligand conformer 130
          26          25           1
SMALL
USER_CHARGES
 
@<TRIPOS>ATOM
       1    C1      20.560353   20.507976   20.820232 C.3        1 MOL1        -0.2400
       2    H1      19.707066   20.900072   20.251713 H          1 MOL1         0.0971
       3    H2      20.427108   20.796033   21.868652 H          1 MOL1         0.0971
       4    H3      21.464604   21.008254   20.450162 H          1 MOL1         0.0971
       5    C2      20.680709   18.975819   20.647032 C.3        1 MOL1        -0.1385
       6    H4      21.579132   18.602596   21.158022 H          1 MOL1         0.0960
       7    H5      20.832546   18.767285   19.578683 H          1 MOL1         0.0960
       8    C3      19.426223   18.201627   21.127675 C.3        1 MOL1        -0.1409
       9    H6      18.528226   18.824146   21.012631 H          1 MOL1         0.0960
      10    H7      19.277747   17.342702   20.458645 H          1 MOL1         0.0960
      11    C4      19.513336   17.654117   22.575827 C.3        1 MOL1        -0.1409
      12    H8      20.351934   16.947928   22.648791 H          1 MOL1         0.0960
      13    H9      18.604252   17.070657   22.776876 H          1 MOL1         0.0960
      14    C5      19.663528   18.743959   23.662384 C.3        1 MOL1        -0.1409
      15    H10     20.630344   19.247278   23.539602 H          1 MOL1         0.0960
      16    H11     18.880348   19.503637   23.532625 H          1 MOL1         0.0960
      17    C6      19.573934   18.148992   25.087671 C.3        1 MOL1        -0.1450
      18    H12     20.367814   17.404757   25.235514 H          1 MOL1         0.0960
      19    H13     18.620185   17.616565   25.200801 H          1 MOL1         0.0960
      20    C7      19.664355   19.223794   26.188156 C.3        1 MOL1         0.0172
      21    H14     18.880705   19.971283   26.037973 H          1 MOL1         0.0934
      22    H15     19.507507   18.756963   27.164384 H          1 MOL1         0.0934
      23    N1      20.998562   19.942715   26.232023 N.4        1 MOL1        -0.5956
      24    H16     21.193208   20.436200   25.355484 H          1 MOL1         0.3624
      25    H17     21.775348   19.293604   26.394212 H          1 MOL1         0.3624
      26    H18     21.029956   20.640698   26.983149 H          1 MOL1         0.3624
@<TRIPOS>BOND
    1     1     2    1
    2     1     3    1
    3     1     4    1
    4     1     5    1
    5     5     6    1
    6     5     7    1
    7     5     8    1
    8     8     9    1
    9     8    10    1
   10     8    11    1
   11    11    12    1
   12    11    13    1
   13    11    14    1
   14    14    15    1
   15    14    16    1
   16    14    17    1
   17    17    18    1
   18    17    19    1
   19    17    20    1
   20    20    21    1
   21    20    22    1
   22    20    23    1
   23    23    24    1
   24    23    25    1
   25    23    26    1
@<TRIPOS>SUBSTRUCTURE
       1 MOL1            1 RESIDUE      1      MOL     
@<SCITEGIC>MOL_PROPERTY
VM2 Rank
SciTegic.value.IntegerValue
130

@<SCITEGIC>MOL_PROPERTY
Conf_Id
SciTegic.value.IntegerValue
1060

@<SCITEGIC>MOL_PROPERTY
Probability
SciTegic.value.DoubleValue
0.01

@<SCITEGIC>MOL_PROPERTY
Sum Probability
SciTegic.value.DoubleValue
99.70

@<SCITEGIC>MOL_PROPERTY
Delta G
SciTegic.value.DoubleValue
3.779

@<SCITEGIC>MOL_PROPERTY
G
SciTegic.value.DoubleValue
52.040

@<SCITEGIC>MOL_PROPERTY
E
SciTegic.value.DoubleValue
19.238

@<SCITEGIC>MOL_PROPERTY
-TS
SciTegic.value.DoubleValue
32.803

@<SCITEGIC>MOL_PROPERTY
U+W
SciTegic.value.DoubleValue
-2.224

@<SCITEGIC>MOL_PROPERTY
U
SciTegic.value.DoubleValue
51.677

@<SCITEGIC>MOL_PROPERTY
W
SciTegic.value.DoubleValue
-53.901

@<SCITEGIC>MOL_PROPERTY
W(PB)
SciTegic.value.DoubleValue
-56.170

@<SCITEGIC>MOL_PROPERTY
W(SA)
SciTegic.value.DoubleValue
2.269

@<SCITEGIC>MOL_PROPERTY
Valence
SciTegic.value.DoubleValue
5.252

@<SCITEGIC>MOL_PROPERTY
Coulomb
SciTegic.value.DoubleValue
45.637

@<SCITEGIC>MOL_PROPERTY
VdW
SciTegic.value.DoubleValue
0.787

@<SCITEGIC>MOL_PROPERTY
VdW6
SciTegic.value.DoubleValue
-7.893

@<SCITEGIC>MOL_PROPERTY
VdW12
SciTegic.value.DoubleValue
8.681

@<SCITEGIC>MOL_PROPERTY
Bond
SciTegic.value.DoubleValue
0.235

@<SCITEGIC>MOL_PROPERTY
Angle
SciTegic.value.DoubleValue
1.222

@<SCITEGIC>MOL_PROPERTY
Pdih
SciTegic.value.DoubleValue
3.795

@<SCITEGIC>MOL_PROPERTY
Idih
SciTegic.value.DoubleValue
0.000

@<SCITEGIC>MOL_PROPERTY
Tether
SciTegic.value.DoubleValue
0.000

@<TRIPOS>MOLECULE
guest-s14_vm2.mol2 : vm2 ligand conformer 131
          26          25           1
SMALL
USER_CHARGES
 
@<TRIPOS>ATOM
       1    C1      19.096779   19.736205   20.160573 C.3        1 MOL1        -0.2400
       2    H1      18.855496   20.352783   21.033200 H          1 MOL1         0.0971
       3    H2      19.793021   20.302665   19.528589 H          1 MOL1         0.0971
       4    H3      18.170518   19.592881   19.589262 H          1 MOL1         0.0971
       5    C2      19.701491   18.370233   20.560862 C.3        1 MOL1        -0.1385
       6    H4      19.885229   17.799407   19.639827 H          1 MOL1         0.0960
       7    H5      18.973047   17.784626   21.138798 H          1 MOL1         0.0960
       8    C3      21.036389   18.490613   21.340439 C.3        1 MOL1        -0.1409
       9    H6      21.677527   17.646468   21.051003 H          1 MOL1         0.0960
      10    H7      21.578926   19.393767   21.028815 H          1 MOL1         0.0960
      11    C4      20.894228   18.458599   22.884116 C.3        1 MOL1        -0.1409
      12    H8      21.902063   18.469675   23.321614 H          1 MOL1         0.0960
      13    H9      20.440770   17.503914   23.182805 H          1 MOL1         0.0960
      14    C5      20.077444   19.634582   23.472999 C.3        1 MOL1        -0.1409
      15    H10     20.450993   20.580482   23.057317 H          1 MOL1         0.0960
      16    H11     19.026151   19.546135   23.169430 H          1 MOL1         0.0960
      17    C6      20.148917   19.706333   25.016380 C.3        1 MOL1        -0.1450
      18    H12     19.608227   20.599185   25.357523 H          1 MOL1         0.0960
      19    H13     21.193177   19.831441   25.332351 H          1 MOL1         0.0960
      20    C7      19.547777   18.462054   25.696474 C.3        1 MOL1         0.0172
      21    H14     18.506830   18.339565   25.385341 H          1 MOL1         0.0934
      22    H15     20.104495   17.570832   25.395475 H          1 MOL1         0.0934
      23    N1      19.577974   18.540381   27.209157 N.4        1 MOL1        -0.5956
      24    H16     20.534184   18.629921   27.568084 H          1 MOL1         0.3624
      25    H17     19.173581   17.702982   27.642282 H          1 MOL1         0.3624
      26    H18     19.047196   19.344001   27.560805 H          1 MOL1         0.3624
@<TRIPOS>BOND
    1     1     2    1
    2     1     3    1
    3     1     4    1
    4     1     5    1
    5     5     6    1
    6     5     7    1
    7     5     8    1
    8     8     9    1
    9     8    10    1
   10     8    11    1
   11    11    12    1
   12    11    13    1
   13    11    14    1
   14    14    15    1
   15    14    16    1
   16    14    17    1
   17    17    18    1
   18    17    19    1
   19    17    20    1
   20    20    21    1
   21    20    22    1
   22    20    23    1
   23    23    24    1
   24    23    25    1
   25    23    26    1
@<TRIPOS>SUBSTRUCTURE
       1 MOL1            1 RESIDUE      1      MOL     
@<SCITEGIC>MOL_PROPERTY
VM2 Rank
SciTegic.value.IntegerValue
131

@<SCITEGIC>MOL_PROPERTY
Conf_Id
SciTegic.value.IntegerValue
174

@<SCITEGIC>MOL_PROPERTY
Probability
SciTegic.value.DoubleValue
0.01

@<SCITEGIC>MOL_PROPERTY
Sum Probability
SciTegic.value.DoubleValue
99.72

@<SCITEGIC>MOL_PROPERTY
Delta G
SciTegic.value.DoubleValue
3.781

@<SCITEGIC>MOL_PROPERTY
G
SciTegic.value.DoubleValue
52.043

@<SCITEGIC>MOL_PROPERTY
E
SciTegic.value.DoubleValue
19.253

@<SCITEGIC>MOL_PROPERTY
-TS
SciTegic.value.DoubleValue
32.790

@<SCITEGIC>MOL_PROPERTY
U+W
SciTegic.value.DoubleValue
-2.209

@<SCITEGIC>MOL_PROPERTY
U
SciTegic.value.DoubleValue
51.296

@<SCITEGIC>MOL_PROPERTY
W
SciTegic.value.DoubleValue
-53.505

@<SCITEGIC>MOL_PROPERTY
W(PB)
SciTegic.value.DoubleValue
-55.787

@<SCITEGIC>MOL_PROPERTY
W(SA)
SciTegic.value.DoubleValue
2.282

@<SCITEGIC>MOL_PROPERTY
Valence
SciTegic.value.DoubleValue
5.428

@<SCITEGIC>MOL_PROPERTY
Coulomb
SciTegic.value.DoubleValue
45.118

@<SCITEGIC>MOL_PROPERTY
VdW
SciTegic.value.DoubleValue
0.751

@<SCITEGIC>MOL_PROPERTY
VdW6
SciTegic.value.DoubleValue
-7.913

@<SCITEGIC>MOL_PROPERTY
VdW12
SciTegic.value.DoubleValue
8.663

@<SCITEGIC>MOL_PROPERTY
Bond
SciTegic.value.DoubleValue
0.235

@<SCITEGIC>MOL_PROPERTY
Angle
SciTegic.value.DoubleValue
1.292

@<SCITEGIC>MOL_PROPERTY
Pdih
SciTegic.value.DoubleValue
3.901

@<SCITEGIC>MOL_PROPERTY
Idih
SciTegic.value.DoubleValue
0.000

@<SCITEGIC>MOL_PROPERTY
Tether
SciTegic.value.DoubleValue
0.000

@<TRIPOS>MOLECULE
guest-s14_vm2.mol2 : vm2 ligand conformer 132
          26          25           1
SMALL
USER_CHARGES
 
@<TRIPOS>ATOM
       1    C1      19.060918   20.005946   20.021340 C.3        1 MOL1        -0.2400
       2    H1      18.118029   20.218595   20.541891 H          1 MOL1         0.0971
       3    H2      19.662916   20.923978   20.015359 H          1 MOL1         0.0971
       4    H3      18.821366   19.753387   18.980253 H          1 MOL1         0.0971
       5    C2      19.821644   18.848035   20.701626 C.3        1 MOL1        -0.1385
       6    H4      20.741208   18.635832   20.138351 H          1 MOL1         0.0960
       7    H5      19.208618   17.936649   20.662819 H          1 MOL1         0.0960
       8    C3      20.172036   19.178233   22.169393 C.3        1 MOL1        -0.1409
       9    H6      20.787147   20.088041   22.198843 H          1 MOL1         0.0960
      10    H7      19.246722   19.402125   22.711028 H          1 MOL1         0.0960
      11    C4      20.935144   18.015908   22.850910 C.3        1 MOL1        -0.1409
      12    H8      21.828417   17.797721   22.249231 H          1 MOL1         0.0960
      13    H9      20.328495   17.100024   22.834673 H          1 MOL1         0.0960
      14    C5      21.396197   18.322263   24.300079 C.3        1 MOL1        -0.1409
      15    H10     22.298829   17.727235   24.496672 H          1 MOL1         0.0960
      16    H11     21.714116   19.369679   24.387654 H          1 MOL1         0.0960
      17    C6      20.364315   17.967113   25.403840 C.3        1 MOL1        -0.1450
      18    H12     20.835544   18.101232   26.386579 H          1 MOL1         0.0960
      19    H13     20.112937   16.900528   25.333599 H          1 MOL1         0.0960
      20    C7      19.058637   18.784175   25.370736 C.3        1 MOL1         0.0172
      21    H14     18.532218   18.604267   24.430864 H          1 MOL1         0.0934
      22    H15     18.408213   18.457827   26.186775 H          1 MOL1         0.0934
      23    N1      19.272109   20.277326   25.523076 N.4        1 MOL1        -0.5956
      24    H16     18.386010   20.793576   25.501522 H          1 MOL1         0.3624
      25    H17     19.860797   20.651802   24.772915 H          1 MOL1         0.3624
      26    H18     19.730305   20.505804   26.411242 H          1 MOL1         0.3624
@<TRIPOS>BOND
    1     1     2    1
    2     1     3    1
    3     1     4    1
    4     1     5    1
    5     5     6    1
    6     5     7    1
    7     5     8    1
    8     8     9    1
    9     8    10    1
   10     8    11    1
   11    11    12    1
   12    11    13    1
   13    11    14    1
   14    14    15    1
   15    14    16    1
   16    14    17    1
   17    17    18    1
   18    17    19    1
   19    17    20    1
   20    20    21    1
   21    20    22    1
   22    20    23    1
   23    23    24    1
   24    23    25    1
   25    23    26    1
@<TRIPOS>SUBSTRUCTURE
       1 MOL1            1 RESIDUE      1      MOL     
@<SCITEGIC>MOL_PROPERTY
VM2 Rank
SciTegic.value.IntegerValue
132

@<SCITEGIC>MOL_PROPERTY
Conf_Id
SciTegic.value.IntegerValue
402

@<SCITEGIC>MOL_PROPERTY
Probability
SciTegic.value.DoubleValue
0.01

@<SCITEGIC>MOL_PROPERTY
Sum Probability
SciTegic.value.DoubleValue
99.73

@<SCITEGIC>MOL_PROPERTY
Delta G
SciTegic.value.DoubleValue
3.799

@<SCITEGIC>MOL_PROPERTY
G
SciTegic.value.DoubleValue
52.060

@<SCITEGIC>MOL_PROPERTY
E
SciTegic.value.DoubleValue
19.192

@<SCITEGIC>MOL_PROPERTY
-TS
SciTegic.value.DoubleValue
32.868

@<SCITEGIC>MOL_PROPERTY
U+W
SciTegic.value.DoubleValue
-2.270

@<SCITEGIC>MOL_PROPERTY
U
SciTegic.value.DoubleValue
51.830

@<SCITEGIC>MOL_PROPERTY
W
SciTegic.value.DoubleValue
-54.100

@<SCITEGIC>MOL_PROPERTY
W(PB)
SciTegic.value.DoubleValue
-56.379

@<SCITEGIC>MOL_PROPERTY
W(SA)
SciTegic.value.DoubleValue
2.279

@<SCITEGIC>MOL_PROPERTY
Valence
SciTegic.value.DoubleValue
4.864

@<SCITEGIC>MOL_PROPERTY
Coulomb
SciTegic.value.DoubleValue
46.522

@<SCITEGIC>MOL_PROPERTY
VdW
SciTegic.value.DoubleValue
0.444

@<SCITEGIC>MOL_PROPERTY
VdW6
SciTegic.value.DoubleValue
-8.267

@<SCITEGIC>MOL_PROPERTY
VdW12
SciTegic.value.DoubleValue
8.711

@<SCITEGIC>MOL_PROPERTY
Bond
SciTegic.value.DoubleValue
0.239

@<SCITEGIC>MOL_PROPERTY
Angle
SciTegic.value.DoubleValue
1.440

@<SCITEGIC>MOL_PROPERTY
Pdih
SciTegic.value.DoubleValue
3.185

@<SCITEGIC>MOL_PROPERTY
Idih
SciTegic.value.DoubleValue
0.000

@<SCITEGIC>MOL_PROPERTY
Tether
SciTegic.value.DoubleValue
0.000

@<TRIPOS>MOLECULE
guest-s14_vm2.mol2 : vm2 ligand conformer 133
          26          25           1
SMALL
USER_CHARGES
 
@<TRIPOS>ATOM
       1    C1      19.707163   19.627321   19.885109 C.3        1 MOL1        -0.2400
       2    H1      19.219548   20.545410   20.237734 H          1 MOL1         0.0971
       3    H2      20.015962   19.789475   18.844313 H          1 MOL1         0.0971
       4    H3      18.963749   18.820429   19.887295 H          1 MOL1         0.0971
       5    C2      20.928855   19.274442   20.763507 C.3        1 MOL1        -0.1385
       6    H4      21.691229   20.056735   20.642831 H          1 MOL1         0.0960
       7    H5      21.385704   18.342082   20.403322 H          1 MOL1         0.0960
       8    C3      20.584415   19.142353   22.266548 C.3        1 MOL1        -0.1409
       9    H6      21.515786   18.981449   22.826435 H          1 MOL1         0.0960
      10    H7      20.161758   20.092839   22.615794 H          1 MOL1         0.0960
      11    C4      19.598801   17.986957   22.568616 C.3        1 MOL1        -0.1409
      12    H8      19.929016   17.088544   22.029191 H          1 MOL1         0.0960
      13    H9      18.605365   18.234488   22.171363 H          1 MOL1         0.0960
      14    C5      19.470125   17.625492   24.071154 C.3        1 MOL1        -0.1409
      15    H10     18.801915   16.756171   24.142787 H          1 MOL1         0.0960
      16    H11     20.437849   17.282531   24.459275 H          1 MOL1         0.0960
      17    C6      18.885715   18.748824   24.969175 C.3        1 MOL1        -0.1450
      18    H12     18.420417   18.290937   25.852193 H          1 MOL1         0.0960
      19    H13     18.075584   19.263277   24.435578 H          1 MOL1         0.0960
      20    C7      19.917630   19.787508   25.457259 C.3        1 MOL1         0.0172
      21    H14     20.413907   20.259539   24.607913 H          1 MOL1         0.0934
      22    H15     19.401057   20.568327   26.022038 H          1 MOL1         0.0934
      23    N1      20.988295   19.206103   26.359632 N.4        1 MOL1        -0.5956
      24    H16     20.585605   18.772667   27.196842 H          1 MOL1         0.3624
      25    H17     21.646346   19.924136   26.681465 H          1 MOL1         0.3624
      26    H18     21.538692   18.486660   25.881093 H          1 MOL1         0.3624
@<TRIPOS>BOND
    1     1     2    1
    2     1     3    1
    3     1     4    1
    4     1     5    1
    5     5     6    1
    6     5     7    1
    7     5     8    1
    8     8     9    1
    9     8    10    1
   10     8    11    1
   11    11    12    1
   12    11    13    1
   13    11    14    1
   14    14    15    1
   15    14    16    1
   16    14    17    1
   17    17    18    1
   18    17    19    1
   19    17    20    1
   20    20    21    1
   21    20    22    1
   22    20    23    1
   23    23    24    1
   24    23    25    1
   25    23    26    1
@<TRIPOS>SUBSTRUCTURE
       1 MOL1            1 RESIDUE      1      MOL     
@<SCITEGIC>MOL_PROPERTY
VM2 Rank
SciTegic.value.IntegerValue
133

@<SCITEGIC>MOL_PROPERTY
Conf_Id
SciTegic.value.IntegerValue
1238

@<SCITEGIC>MOL_PROPERTY
Probability
SciTegic.value.DoubleValue
0.01

@<SCITEGIC>MOL_PROPERTY
Sum Probability
SciTegic.value.DoubleValue
99.74

@<SCITEGIC>MOL_PROPERTY
Delta G
SciTegic.value.DoubleValue
3.800

@<SCITEGIC>MOL_PROPERTY
G
SciTegic.value.DoubleValue
52.061

@<SCITEGIC>MOL_PROPERTY
E
SciTegic.value.DoubleValue
19.187

@<SCITEGIC>MOL_PROPERTY
-TS
SciTegic.value.DoubleValue
32.874

@<SCITEGIC>MOL_PROPERTY
U+W
SciTegic.value.DoubleValue
-2.275

@<SCITEGIC>MOL_PROPERTY
U
SciTegic.value.DoubleValue
51.886

@<SCITEGIC>MOL_PROPERTY
W
SciTegic.value.DoubleValue
-54.161

@<SCITEGIC>MOL_PROPERTY
W(PB)
SciTegic.value.DoubleValue
-56.424

@<SCITEGIC>MOL_PROPERTY
W(SA)
SciTegic.value.DoubleValue
2.264

@<SCITEGIC>MOL_PROPERTY
Valence
SciTegic.value.DoubleValue
5.154

@<SCITEGIC>MOL_PROPERTY
Coulomb
SciTegic.value.DoubleValue
46.018

@<SCITEGIC>MOL_PROPERTY
VdW
SciTegic.value.DoubleValue
0.714

@<SCITEGIC>MOL_PROPERTY
VdW6
SciTegic.value.DoubleValue
-8.701

@<SCITEGIC>MOL_PROPERTY
VdW12
SciTegic.value.DoubleValue
9.415

@<SCITEGIC>MOL_PROPERTY
Bond
SciTegic.value.DoubleValue
0.265

@<SCITEGIC>MOL_PROPERTY
Angle
SciTegic.value.DoubleValue
1.544

@<SCITEGIC>MOL_PROPERTY
Pdih
SciTegic.value.DoubleValue
3.345

@<SCITEGIC>MOL_PROPERTY
Idih
SciTegic.value.DoubleValue
0.000

@<SCITEGIC>MOL_PROPERTY
Tether
SciTegic.value.DoubleValue
0.000

@<TRIPOS>MOLECULE
guest-s14_vm2.mol2 : vm2 ligand conformer 134
          26          25           1
SMALL
USER_CHARGES
 
@<TRIPOS>ATOM
       1    C1      19.642390   19.584655   19.882966 C.3        1 MOL1        -0.2400
       2    H1      18.974155   20.383595   20.229608 H          1 MOL1         0.0971
       3    H2      20.675317   19.949376   19.944474 H          1 MOL1         0.0971
       4    H3      19.420590   19.396909   18.824447 H          1 MOL1         0.0971
       5    C2      19.446019   18.296425   20.713953 C.3        1 MOL1        -0.1385
       6    H4      20.139798   17.520348   20.361652 H          1 MOL1         0.0960
       7    H5      18.433753   17.908231   20.534003 H          1 MOL1         0.0960
       8    C3      19.632672   18.514582   22.234735 C.3        1 MOL1        -0.1409
       9    H6      18.909359   19.266773   22.573942 H          1 MOL1         0.0960
      10    H7      19.388704   17.578497   22.755349 H          1 MOL1         0.0960
      11    C4      21.066864   18.955130   22.617658 C.3        1 MOL1        -0.1409
      12    H8      21.248091   19.977355   22.259597 H          1 MOL1         0.0960
      13    H9      21.787509   18.314173   22.091339 H          1 MOL1         0.0960
      14    C5      21.379424   18.884816   24.134957 C.3        1 MOL1        -0.1409
      15    H10     21.296455   17.848853   24.488014 H          1 MOL1         0.0960
      16    H11     22.436919   19.153762   24.264288 H          1 MOL1         0.0960
      17    C6      20.535194   19.836846   25.024210 C.3        1 MOL1        -0.1450
      18    H12     20.405469   20.800070   24.513262 H          1 MOL1         0.0960
      19    H13     21.097342   20.056786   25.941543 H          1 MOL1         0.0960
      20    C7      19.153323   19.283358   25.431675 C.3        1 MOL1         0.0172
      21    H14     18.612548   20.048306   25.995516 H          1 MOL1         0.0934
      22    H15     18.564488   19.039445   24.546083 H          1 MOL1         0.0934
      23    N1      19.225114   18.043189   26.300845 N.4        1 MOL1        -0.5956
      24    H16     18.292270   17.711811   26.569485 H          1 MOL1         0.3624
      25    H17     19.742284   18.216719   27.168813 H          1 MOL1         0.3624
      26    H18     19.692263   17.268743   25.819660 H          1 MOL1         0.3624
@<TRIPOS>BOND
    1     1     2    1
    2     1     3    1
    3     1     4    1
    4     1     5    1
    5     5     6    1
    6     5     7    1
    7     5     8    1
    8     8     9    1
    9     8    10    1
   10     8    11    1
   11    11    12    1
   12    11    13    1
   13    11    14    1
   14    14    15    1
   15    14    16    1
   16    14    17    1
   17    17    18    1
   18    17    19    1
   19    17    20    1
   20    20    21    1
   21    20    22    1
   22    20    23    1
   23    23    24    1
   24    23    25    1
   25    23    26    1
@<TRIPOS>SUBSTRUCTURE
       1 MOL1            1 RESIDUE      1      MOL     
@<SCITEGIC>MOL_PROPERTY
VM2 Rank
SciTegic.value.IntegerValue
134

@<SCITEGIC>MOL_PROPERTY
Conf_Id
SciTegic.value.IntegerValue
420

@<SCITEGIC>MOL_PROPERTY
Probability
SciTegic.value.DoubleValue
0.01

@<SCITEGIC>MOL_PROPERTY
Sum Probability
SciTegic.value.DoubleValue
99.76

@<SCITEGIC>MOL_PROPERTY
Delta G
SciTegic.value.DoubleValue
3.813

@<SCITEGIC>MOL_PROPERTY
G
SciTegic.value.DoubleValue
52.074

@<SCITEGIC>MOL_PROPERTY
E
SciTegic.value.DoubleValue
19.200

@<SCITEGIC>MOL_PROPERTY
-TS
SciTegic.value.DoubleValue
32.874

@<SCITEGIC>MOL_PROPERTY
U+W
SciTegic.value.DoubleValue
-2.262

@<SCITEGIC>MOL_PROPERTY
U
SciTegic.value.DoubleValue
51.886

@<SCITEGIC>MOL_PROPERTY
W
SciTegic.value.DoubleValue
-54.148

@<SCITEGIC>MOL_PROPERTY
W(PB)
SciTegic.value.DoubleValue
-56.400

@<SCITEGIC>MOL_PROPERTY
W(SA)
SciTegic.value.DoubleValue
2.252

@<SCITEGIC>MOL_PROPERTY
Valence
SciTegic.value.DoubleValue
5.153

@<SCITEGIC>MOL_PROPERTY
Coulomb
SciTegic.value.DoubleValue
46.018

@<SCITEGIC>MOL_PROPERTY
VdW
SciTegic.value.DoubleValue
0.714

@<SCITEGIC>MOL_PROPERTY
VdW6
SciTegic.value.DoubleValue
-8.701

@<SCITEGIC>MOL_PROPERTY
VdW12
SciTegic.value.DoubleValue
9.416

@<SCITEGIC>MOL_PROPERTY
Bond
SciTegic.value.DoubleValue
0.265

@<SCITEGIC>MOL_PROPERTY
Angle
SciTegic.value.DoubleValue
1.543

@<SCITEGIC>MOL_PROPERTY
Pdih
SciTegic.value.DoubleValue
3.345

@<SCITEGIC>MOL_PROPERTY
Idih
SciTegic.value.DoubleValue
0.000

@<SCITEGIC>MOL_PROPERTY
Tether
SciTegic.value.DoubleValue
0.000

@<TRIPOS>MOLECULE
guest-s14_vm2.mol2 : vm2 ligand conformer 135
          26          25           1
SMALL
USER_CHARGES
 
@<TRIPOS>ATOM
       1    C1      19.540565   20.322677   20.037344 C.3        1 MOL1        -0.2400
       2    H1      18.461493   20.130477   19.975027 H          1 MOL1         0.0971
       3    H2      19.690015   21.256767   20.594454 H          1 MOL1         0.0971
       4    H3      19.915003   20.475565   19.016827 H          1 MOL1         0.0971
       5    C2      20.275123   19.147515   20.716807 C.3        1 MOL1        -0.1385
       6    H4      21.354494   19.353841   20.734689 H          1 MOL1         0.0960
       7    H5      20.136378   18.236352   20.118110 H          1 MOL1         0.0960
       8    C3      19.766075   18.910158   22.155795 C.3        1 MOL1        -0.1409
       9    H6      19.897333   19.831863   22.732799 H          1 MOL1         0.0960
      10    H7      18.687775   18.701576   22.128534 H          1 MOL1         0.0960
      11    C4      20.503731   17.731033   22.836482 C.3        1 MOL1        -0.1409
      12    H8      21.583699   17.928993   22.876626 H          1 MOL1         0.0960
      13    H9      20.382471   16.842844   22.200892 H          1 MOL1         0.0960
      14    C5      19.974268   17.383247   24.252542 C.3        1 MOL1        -0.1409
      15    H10     18.883161   17.500148   24.293024 H          1 MOL1         0.0960
      16    H11     20.158510   16.313794   24.425112 H          1 MOL1         0.0960
      17    C6      20.653352   18.157984   25.413505 C.3        1 MOL1        -0.1450
      18    H12     21.735207   17.971814   25.387853 H          1 MOL1         0.0960
      19    H13     20.299835   17.747492   26.368672 H          1 MOL1         0.0960
      20    C7      20.415354   19.680100   25.416073 C.3        1 MOL1         0.0172
      21    H14     20.932042   20.124448   26.271095 H          1 MOL1         0.0934
      22    H15     20.830507   20.121984   24.507649 H          1 MOL1         0.0934
      23    N1      18.952532   20.066286   25.512452 N.4        1 MOL1        -0.5956
      24    H16     18.826115   21.084203   25.516259 H          1 MOL1         0.3624
      25    H17     18.521882   19.707806   26.370948 H          1 MOL1         0.3624
      26    H18     18.412719   19.695540   24.724621 H          1 MOL1         0.3624
@<TRIPOS>BOND
    1     1     2    1
    2     1     3    1
    3     1     4    1
    4     1     5    1
    5     5     6    1
    6     5     7    1
    7     5     8    1
    8     8     9    1
    9     8    10    1
   10     8    11    1
   11    11    12    1
   12    11    13    1
   13    11    14    1
   14    14    15    1
   15    14    16    1
   16    14    17    1
   17    17    18    1
   18    17    19    1
   19    17    20    1
   20    20    21    1
   21    20    22    1
   22    20    23    1
   23    23    24    1
   24    23    25    1
   25    23    26    1
@<TRIPOS>SUBSTRUCTURE
       1 MOL1            1 RESIDUE      1      MOL     
@<SCITEGIC>MOL_PROPERTY
VM2 Rank
SciTegic.value.IntegerValue
135

@<SCITEGIC>MOL_PROPERTY
Conf_Id
SciTegic.value.IntegerValue
398

@<SCITEGIC>MOL_PROPERTY
Probability
SciTegic.value.DoubleValue
0.01

@<SCITEGIC>MOL_PROPERTY
Sum Probability
SciTegic.value.DoubleValue
99.77

@<SCITEGIC>MOL_PROPERTY
Delta G
SciTegic.value.DoubleValue
3.830

@<SCITEGIC>MOL_PROPERTY
G
SciTegic.value.DoubleValue
52.092

@<SCITEGIC>MOL_PROPERTY
E
SciTegic.value.DoubleValue
19.223

@<SCITEGIC>MOL_PROPERTY
-TS
SciTegic.value.DoubleValue
32.869

@<SCITEGIC>MOL_PROPERTY
U+W
SciTegic.value.DoubleValue
-2.239

@<SCITEGIC>MOL_PROPERTY
U
SciTegic.value.DoubleValue
51.830

@<SCITEGIC>MOL_PROPERTY
W
SciTegic.value.DoubleValue
-54.069

@<SCITEGIC>MOL_PROPERTY
W(PB)
SciTegic.value.DoubleValue
-56.350

@<SCITEGIC>MOL_PROPERTY
W(SA)
SciTegic.value.DoubleValue
2.281

@<SCITEGIC>MOL_PROPERTY
Valence
SciTegic.value.DoubleValue
4.864

@<SCITEGIC>MOL_PROPERTY
Coulomb
SciTegic.value.DoubleValue
46.522

@<SCITEGIC>MOL_PROPERTY
VdW
SciTegic.value.DoubleValue
0.444

@<SCITEGIC>MOL_PROPERTY
VdW6
SciTegic.value.DoubleValue
-8.266

@<SCITEGIC>MOL_PROPERTY
VdW12
SciTegic.value.DoubleValue
8.710

@<SCITEGIC>MOL_PROPERTY
Bond
SciTegic.value.DoubleValue
0.239

@<SCITEGIC>MOL_PROPERTY
Angle
SciTegic.value.DoubleValue
1.440

@<SCITEGIC>MOL_PROPERTY
Pdih
SciTegic.value.DoubleValue
3.185

@<SCITEGIC>MOL_PROPERTY
Idih
SciTegic.value.DoubleValue
0.000

@<SCITEGIC>MOL_PROPERTY
Tether
SciTegic.value.DoubleValue
0.000

@<TRIPOS>MOLECULE
guest-s14_vm2.mol2 : vm2 ligand conformer 136
          26          25           1
SMALL
USER_CHARGES
 
@<TRIPOS>ATOM
       1    C1      21.187437   19.815161   20.100400 C.3        1 MOL1        -0.2400
       2    H1      20.728964   20.808699   20.011389 H          1 MOL1         0.0971
       3    H2      22.277333   19.945999   20.104796 H          1 MOL1         0.0971
       4    H3      20.921794   19.234635   19.207295 H          1 MOL1         0.0971
       5    C2      20.719122   19.101690   21.386404 C.3        1 MOL1        -0.1385
       6    H4      21.036867   19.694137   22.254245 H          1 MOL1         0.0960
       7    H5      21.213727   18.123281   21.461278 H          1 MOL1         0.0960
       8    C3      19.184756   18.916518   21.409318 C.3        1 MOL1        -0.1409
       9    H6      18.698942   19.901874   21.425966 H          1 MOL1         0.0960
      10    H7      18.869590   18.437126   20.472209 H          1 MOL1         0.0960
      11    C4      18.658572   18.062410   22.591775 C.3        1 MOL1        -0.1409
      12    H8      19.052184   17.038983   22.522621 H          1 MOL1         0.0960
      13    H9      17.570361   17.968488   22.471690 H          1 MOL1         0.0960
      14    C5      18.939259   18.655022   23.997433 C.3        1 MOL1        -0.1409
      15    H10     18.988520   19.750189   23.936063 H          1 MOL1         0.0960
      16    H11     18.083669   18.425610   24.647814 H          1 MOL1         0.0960
      17    C6      20.215498   18.080618   24.663962 C.3        1 MOL1        -0.1450
      18    H12     21.102480   18.275902   24.050930 H          1 MOL1         0.0960
      19    H13     20.124209   16.988639   24.734866 H          1 MOL1         0.0960
      20    C7      20.445258   18.639450   26.081207 C.3        1 MOL1         0.0172
      21    H14     19.563132   18.450754   26.698977 H          1 MOL1         0.0934
      22    H15     21.297373   18.129355   26.538647 H          1 MOL1         0.0934
      23    N1      20.731098   20.128131   26.110500 N.4        1 MOL1        -0.5956
      24    H16     21.567144   20.366263   25.567278 H          1 MOL1         0.3624
      25    H17     20.888573   20.466185   27.066140 H          1 MOL1         0.3624
      26    H18     19.952912   20.671654   25.724700 H          1 MOL1         0.3624
@<TRIPOS>BOND
    1     1     2    1
    2     1     3    1
    3     1     4    1
    4     1     5    1
    5     5     6    1
    6     5     7    1
    7     5     8    1
    8     8     9    1
    9     8    10    1
   10     8    11    1
   11    11    12    1
   12    11    13    1
   13    11    14    1
   14    14    15    1
   15    14    16    1
   16    14    17    1
   17    17    18    1
   18    17    19    1
   19    17    20    1
   20    20    21    1
   21    20    22    1
   22    20    23    1
   23    23    24    1
   24    23    25    1
   25    23    26    1
@<TRIPOS>SUBSTRUCTURE
       1 MOL1            1 RESIDUE      1      MOL     
@<SCITEGIC>MOL_PROPERTY
VM2 Rank
SciTegic.value.IntegerValue
136

@<SCITEGIC>MOL_PROPERTY
Conf_Id
SciTegic.value.IntegerValue
258

@<SCITEGIC>MOL_PROPERTY
Probability
SciTegic.value.DoubleValue
0.01

@<SCITEGIC>MOL_PROPERTY
Sum Probability
SciTegic.value.DoubleValue
99.78

@<SCITEGIC>MOL_PROPERTY
Delta G
SciTegic.value.DoubleValue
3.853

@<SCITEGIC>MOL_PROPERTY
G
SciTegic.value.DoubleValue
52.115

@<SCITEGIC>MOL_PROPERTY
E
SciTegic.value.DoubleValue
19.297

@<SCITEGIC>MOL_PROPERTY
-TS
SciTegic.value.DoubleValue
32.818

@<SCITEGIC>MOL_PROPERTY
U+W
SciTegic.value.DoubleValue
-2.165

@<SCITEGIC>MOL_PROPERTY
U
SciTegic.value.DoubleValue
51.954

@<SCITEGIC>MOL_PROPERTY
W
SciTegic.value.DoubleValue
-54.119

@<SCITEGIC>MOL_PROPERTY
W(PB)
SciTegic.value.DoubleValue
-56.405

@<SCITEGIC>MOL_PROPERTY
W(SA)
SciTegic.value.DoubleValue
2.286

@<SCITEGIC>MOL_PROPERTY
Valence
SciTegic.value.DoubleValue
5.280

@<SCITEGIC>MOL_PROPERTY
Coulomb
SciTegic.value.DoubleValue
45.974

@<SCITEGIC>MOL_PROPERTY
VdW
SciTegic.value.DoubleValue
0.700

@<SCITEGIC>MOL_PROPERTY
VdW6
SciTegic.value.DoubleValue
-7.998

@<SCITEGIC>MOL_PROPERTY
VdW12
SciTegic.value.DoubleValue
8.698

@<SCITEGIC>MOL_PROPERTY
Bond
SciTegic.value.DoubleValue
0.241

@<SCITEGIC>MOL_PROPERTY
Angle
SciTegic.value.DoubleValue
1.238

@<SCITEGIC>MOL_PROPERTY
Pdih
SciTegic.value.DoubleValue
3.800

@<SCITEGIC>MOL_PROPERTY
Idih
SciTegic.value.DoubleValue
0.000

@<SCITEGIC>MOL_PROPERTY
Tether
SciTegic.value.DoubleValue
0.000

@<TRIPOS>MOLECULE
guest-s14_vm2.mol2 : vm2 ligand conformer 137
          26          25           1
SMALL
USER_CHARGES
 
@<TRIPOS>ATOM
       1    C1      20.320155   20.430006   20.736348 C.3        1 MOL1        -0.2400
       2    H1      21.396649   20.476566   20.526776 H          1 MOL1         0.0971
       3    H2      19.810032   21.089944   20.022838 H          1 MOL1         0.0971
       4    H3      20.147009   20.834166   21.741481 H          1 MOL1         0.0971
       5    C2      19.791513   18.983362   20.608694 C.3        1 MOL1        -0.1385
       6    H4      19.875926   18.667399   19.559553 H          1 MOL1         0.0960
       7    H5      18.719116   18.958795   20.844463 H          1 MOL1         0.0960
       8    C3      20.557553   17.966531   21.492953 C.3        1 MOL1        -0.1409
       9    H6      20.147787   16.962900   21.314105 H          1 MOL1         0.0960
      10    H7      21.604726   17.926268   21.162883 H          1 MOL1         0.0960
      11    C4      20.525438   18.260651   23.014816 C.3        1 MOL1        -0.1409
      12    H8      21.036612   19.210972   23.207581 H          1 MOL1         0.0960
      13    H9      21.105504   17.482367   23.529459 H          1 MOL1         0.0960
      14    C5      19.092221   18.298519   23.600998 C.3        1 MOL1        -0.1409
      15    H10     18.555256   19.175233   23.214766 H          1 MOL1         0.0960
      16    H11     18.540195   17.417679   23.245265 H          1 MOL1         0.0960
      17    C6      19.035231   18.311861   25.149883 C.3        1 MOL1        -0.1450
      18    H12     19.523222   17.417305   25.559095 H          1 MOL1         0.0960
      19    H13     17.980696   18.242809   25.448234 H          1 MOL1         0.0960
      20    C7      19.624471   19.580853   25.800105 C.3        1 MOL1         0.0172
      21    H14     19.335457   20.462519   25.221814 H          1 MOL1         0.0934
      22    H15     19.214288   19.687224   26.808037 H          1 MOL1         0.0934
      23    N1      21.134419   19.567216   25.937203 N.4        1 MOL1        -0.5956
      24    H16     21.484203   20.427414   26.373184 H          1 MOL1         0.3624
      25    H17     21.597607   19.478294   25.028649 H          1 MOL1         0.3624
      26    H18     21.455052   18.786207   26.518819 H          1 MOL1         0.3624
@<TRIPOS>BOND
    1     1     2    1
    2     1     3    1
    3     1     4    1
    4     1     5    1
    5     5     6    1
    6     5     7    1
    7     5     8    1
    8     8     9    1
    9     8    10    1
   10     8    11    1
   11    11    12    1
   12    11    13    1
   13    11    14    1
   14    14    15    1
   15    14    16    1
   16    14    17    1
   17    17    18    1
   18    17    19    1
   19    17    20    1
   20    20    21    1
   21    20    22    1
   22    20    23    1
   23    23    24    1
   24    23    25    1
   25    23    26    1
@<TRIPOS>SUBSTRUCTURE
       1 MOL1            1 RESIDUE      1      MOL     
@<SCITEGIC>MOL_PROPERTY
VM2 Rank
SciTegic.value.IntegerValue
137

@<SCITEGIC>MOL_PROPERTY
Conf_Id
SciTegic.value.IntegerValue
855

@<SCITEGIC>MOL_PROPERTY
Probability
SciTegic.value.DoubleValue
0.01

@<SCITEGIC>MOL_PROPERTY
Sum Probability
SciTegic.value.DoubleValue
99.79

@<SCITEGIC>MOL_PROPERTY
Delta G
SciTegic.value.DoubleValue
3.901

@<SCITEGIC>MOL_PROPERTY
G
SciTegic.value.DoubleValue
52.162

@<SCITEGIC>MOL_PROPERTY
E
SciTegic.value.DoubleValue
19.217

@<SCITEGIC>MOL_PROPERTY
-TS
SciTegic.value.DoubleValue
32.945

@<SCITEGIC>MOL_PROPERTY
U+W
SciTegic.value.DoubleValue
-2.245

@<SCITEGIC>MOL_PROPERTY
U
SciTegic.value.DoubleValue
51.945

@<SCITEGIC>MOL_PROPERTY
W
SciTegic.value.DoubleValue
-54.190

@<SCITEGIC>MOL_PROPERTY
W(PB)
SciTegic.value.DoubleValue
-56.418

@<SCITEGIC>MOL_PROPERTY
W(SA)
SciTegic.value.DoubleValue
2.228

@<SCITEGIC>MOL_PROPERTY
Valence
SciTegic.value.DoubleValue
4.646

@<SCITEGIC>MOL_PROPERTY
Coulomb
SciTegic.value.DoubleValue
46.716

@<SCITEGIC>MOL_PROPERTY
VdW
SciTegic.value.DoubleValue
0.583

@<SCITEGIC>MOL_PROPERTY
VdW6
SciTegic.value.DoubleValue
-8.945

@<SCITEGIC>MOL_PROPERTY
VdW12
SciTegic.value.DoubleValue
9.528

@<SCITEGIC>MOL_PROPERTY
Bond
SciTegic.value.DoubleValue
0.266

@<SCITEGIC>MOL_PROPERTY
Angle
SciTegic.value.DoubleValue
1.504

@<SCITEGIC>MOL_PROPERTY
Pdih
SciTegic.value.DoubleValue
2.877

@<SCITEGIC>MOL_PROPERTY
Idih
SciTegic.value.DoubleValue
0.000

@<SCITEGIC>MOL_PROPERTY
Tether
SciTegic.value.DoubleValue
0.000

@<TRIPOS>MOLECULE
guest-s14_vm2.mol2 : vm2 ligand conformer 138
          26          25           1
SMALL
USER_CHARGES
 
@<TRIPOS>ATOM
       1    C1      20.393582   20.108778   20.076150 C.3        1 MOL1        -0.2400
       2    H1      19.453676   20.527713   19.693880 H          1 MOL1         0.0971
       3    H2      20.673431   20.672885   20.972647 H          1 MOL1         0.0971
       4    H3      21.168045   20.282978   19.318019 H          1 MOL1         0.0971
       5    C2      20.246800   18.595917   20.361832 C.3        1 MOL1        -0.1385
       6    H4      21.211541   18.169566   20.670176 H          1 MOL1         0.0960
       7    H5      19.984401   18.097368   19.418163 H          1 MOL1         0.0960
       8    C3      19.153362   18.272268   21.412421 C.3        1 MOL1        -0.1409
       9    H6      18.367450   19.039800   21.391996 H          1 MOL1         0.0960
      10    H7      18.659919   17.336771   21.114457 H          1 MOL1         0.0960
      11    C4      19.675060   18.082731   22.860379 C.3        1 MOL1        -0.1409
      12    H8      20.380711   17.240952   22.885532 H          1 MOL1         0.0960
      13    H9      18.824206   17.786569   23.487636 H          1 MOL1         0.0960
      14    C5      20.351862   19.338291   23.463531 C.3        1 MOL1        -0.1409
      15    H10     21.255749   19.573757   22.887336 H          1 MOL1         0.0960
      16    H11     19.681632   20.204120   23.371828 H          1 MOL1         0.0960
      17    C6      20.761671   19.156148   24.944092 C.3        1 MOL1        -0.1450
      18    H12     21.339574   20.033827   25.262919 H          1 MOL1         0.0960
      19    H13     21.429032   18.289173   25.038838 H          1 MOL1         0.0960
      20    C7      19.552174   18.985788   25.882636 C.3        1 MOL1         0.0172
      21    H14     18.887766   19.848765   25.786646 H          1 MOL1         0.0934
      22    H15     18.992676   18.087981   25.608237 H          1 MOL1         0.0934
      23    N1      19.946489   18.859079   27.339958 N.4        1 MOL1        -0.5956
      24    H16     20.552451   18.048204   27.502707 H          1 MOL1         0.3624
      25    H17     19.127815   18.746930   27.947885 H          1 MOL1         0.3624
      26    H18     20.453437   19.686115   27.671930 H          1 MOL1         0.3624
@<TRIPOS>BOND
    1     1     2    1
    2     1     3    1
    3     1     4    1
    4     1     5    1
    5     5     6    1
    6     5     7    1
    7     5     8    1
    8     8     9    1
    9     8    10    1
   10     8    11    1
   11    11    12    1
   12    11    13    1
   13    11    14    1
   14    14    15    1
   15    14    16    1
   16    14    17    1
   17    17    18    1
   18    17    19    1
   19    17    20    1
   20    20    21    1
   21    20    22    1
   22    20    23    1
   23    23    24    1
   24    23    25    1
   25    23    26    1
@<TRIPOS>SUBSTRUCTURE
       1 MOL1            1 RESIDUE      1      MOL     
@<SCITEGIC>MOL_PROPERTY
VM2 Rank
SciTegic.value.IntegerValue
138

@<SCITEGIC>MOL_PROPERTY
Conf_Id
SciTegic.value.IntegerValue
190

@<SCITEGIC>MOL_PROPERTY
Probability
SciTegic.value.DoubleValue
0.01

@<SCITEGIC>MOL_PROPERTY
Sum Probability
SciTegic.value.DoubleValue
99.80

@<SCITEGIC>MOL_PROPERTY
Delta G
SciTegic.value.DoubleValue
3.904

@<SCITEGIC>MOL_PROPERTY
G
SciTegic.value.DoubleValue
52.165

@<SCITEGIC>MOL_PROPERTY
E
SciTegic.value.DoubleValue
19.384

@<SCITEGIC>MOL_PROPERTY
-TS
SciTegic.value.DoubleValue
32.781

@<SCITEGIC>MOL_PROPERTY
U+W
SciTegic.value.DoubleValue
-2.078

@<SCITEGIC>MOL_PROPERTY
U
SciTegic.value.DoubleValue
51.397

@<SCITEGIC>MOL_PROPERTY
W
SciTegic.value.DoubleValue
-53.475

@<SCITEGIC>MOL_PROPERTY
W(PB)
SciTegic.value.DoubleValue
-55.760

@<SCITEGIC>MOL_PROPERTY
W(SA)
SciTegic.value.DoubleValue
2.285

@<SCITEGIC>MOL_PROPERTY
Valence
SciTegic.value.DoubleValue
5.541

@<SCITEGIC>MOL_PROPERTY
Coulomb
SciTegic.value.DoubleValue
45.028

@<SCITEGIC>MOL_PROPERTY
VdW
SciTegic.value.DoubleValue
0.829

@<SCITEGIC>MOL_PROPERTY
VdW6
SciTegic.value.DoubleValue
-7.846

@<SCITEGIC>MOL_PROPERTY
VdW12
SciTegic.value.DoubleValue
8.675

@<SCITEGIC>MOL_PROPERTY
Bond
SciTegic.value.DoubleValue
0.240

@<SCITEGIC>MOL_PROPERTY
Angle
SciTegic.value.DoubleValue
1.341

@<SCITEGIC>MOL_PROPERTY
Pdih
SciTegic.value.DoubleValue
3.960

@<SCITEGIC>MOL_PROPERTY
Idih
SciTegic.value.DoubleValue
0.000

@<SCITEGIC>MOL_PROPERTY
Tether
SciTegic.value.DoubleValue
0.000

@<TRIPOS>MOLECULE
guest-s14_vm2.mol2 : vm2 ligand conformer 139
          26          25           1
SMALL
USER_CHARGES
 
@<TRIPOS>ATOM
       1    C1      19.065208   18.376755   20.222908 C.3        1 MOL1        -0.2400
       2    H1      18.377807   19.230151   20.286370 H          1 MOL1         0.0971
       3    H2      18.850527   17.841396   19.289006 H          1 MOL1         0.0971
       4    H3      18.848948   17.690545   21.051009 H          1 MOL1         0.0971
       5    C2      20.536963   18.843553   20.251025 C.3        1 MOL1        -0.1385
       6    H4      20.749871   19.393426   19.323628 H          1 MOL1         0.0960
       7    H5      21.197762   17.965489   20.242337 H          1 MOL1         0.0960
       8    C3      20.896087   19.751685   21.454856 C.3        1 MOL1        -0.1409
       9    H6      21.944746   20.057718   21.336189 H          1 MOL1         0.0960
      10    H7      20.310709   20.680627   21.415443 H          1 MOL1         0.0960
      11    C4      20.743574   19.077085   22.843127 C.3        1 MOL1        -0.1409
      12    H8      21.550922   19.443259   23.491314 H          1 MOL1         0.0960
      13    H9      20.894149   17.992581   22.752246 H          1 MOL1         0.0960
      14    C5      19.385035   19.379453   23.526397 C.3        1 MOL1        -0.1409
      15    H10     19.296661   20.460010   23.705262 H          1 MOL1         0.0960
      16    H11     18.558791   19.113621   22.856497 H          1 MOL1         0.0960
      17    C6      19.197166   18.621619   24.861655 C.3        1 MOL1        -0.1450
      18    H12     19.256626   17.539761   24.682722 H          1 MOL1         0.0960
      19    H13     18.188085   18.821671   25.245914 H          1 MOL1         0.0960
      20    C7      20.231370   19.027651   25.928343 C.3        1 MOL1         0.0172
      21    H14     21.238805   18.792078   25.575791 H          1 MOL1         0.0934
      22    H15     20.171774   20.104586   26.107319 H          1 MOL1         0.0934
      23    N1      20.025597   18.321201   27.252687 N.4        1 MOL1        -0.5956
      24    H16     20.723723   18.605273   27.948602 H          1 MOL1         0.3624
      25    H17     20.096210   17.302803   27.157539 H          1 MOL1         0.3624
      26    H18     19.104350   18.523615   27.654588 H          1 MOL1         0.3624
@<TRIPOS>BOND
    1     1     2    1
    2     1     3    1
    3     1     4    1
    4     1     5    1
    5     5     6    1
    6     5     7    1
    7     5     8    1
    8     8     9    1
    9     8    10    1
   10     8    11    1
   11    11    12    1
   12    11    13    1
   13    11    14    1
   14    14    15    1
   15    14    16    1
   16    14    17    1
   17    17    18    1
   18    17    19    1
   19    17    20    1
   20    20    21    1
   21    20    22    1
   22    20    23    1
   23    23    24    1
   24    23    25    1
   25    23    26    1
@<TRIPOS>SUBSTRUCTURE
       1 MOL1            1 RESIDUE      1      MOL     
@<SCITEGIC>MOL_PROPERTY
VM2 Rank
SciTegic.value.IntegerValue
139

@<SCITEGIC>MOL_PROPERTY
Conf_Id
SciTegic.value.IntegerValue
1338

@<SCITEGIC>MOL_PROPERTY
Probability
SciTegic.value.DoubleValue
0.01

@<SCITEGIC>MOL_PROPERTY
Sum Probability
SciTegic.value.DoubleValue
99.81

@<SCITEGIC>MOL_PROPERTY
Delta G
SciTegic.value.DoubleValue
3.922

@<SCITEGIC>MOL_PROPERTY
G
SciTegic.value.DoubleValue
52.184

@<SCITEGIC>MOL_PROPERTY
E
SciTegic.value.DoubleValue
19.360

@<SCITEGIC>MOL_PROPERTY
-TS
SciTegic.value.DoubleValue
32.824

@<SCITEGIC>MOL_PROPERTY
U+W
SciTegic.value.DoubleValue
-2.102

@<SCITEGIC>MOL_PROPERTY
U
SciTegic.value.DoubleValue
51.310

@<SCITEGIC>MOL_PROPERTY
W
SciTegic.value.DoubleValue
-53.412

@<SCITEGIC>MOL_PROPERTY
W(PB)
SciTegic.value.DoubleValue
-55.696

@<SCITEGIC>MOL_PROPERTY
W(SA)
SciTegic.value.DoubleValue
2.284

@<SCITEGIC>MOL_PROPERTY
Valence
SciTegic.value.DoubleValue
5.462

@<SCITEGIC>MOL_PROPERTY
Coulomb
SciTegic.value.DoubleValue
45.075

@<SCITEGIC>MOL_PROPERTY
VdW
SciTegic.value.DoubleValue
0.773

@<SCITEGIC>MOL_PROPERTY
VdW6
SciTegic.value.DoubleValue
-7.908

@<SCITEGIC>MOL_PROPERTY
VdW12
SciTegic.value.DoubleValue
8.681

@<SCITEGIC>MOL_PROPERTY
Bond
SciTegic.value.DoubleValue
0.240

@<SCITEGIC>MOL_PROPERTY
Angle
SciTegic.value.DoubleValue
1.238

@<SCITEGIC>MOL_PROPERTY
Pdih
SciTegic.value.DoubleValue
3.984

@<SCITEGIC>MOL_PROPERTY
Idih
SciTegic.value.DoubleValue
0.000

@<SCITEGIC>MOL_PROPERTY
Tether
SciTegic.value.DoubleValue
0.000

@<TRIPOS>MOLECULE
guest-s14_vm2.mol2 : vm2 ligand conformer 140
          26          25           1
SMALL
USER_CHARGES
 
@<TRIPOS>ATOM
       1    C1      18.624740   19.311700   20.679985 C.3        1 MOL1        -0.2400
       2    H1      18.274863   19.599190   21.679262 H          1 MOL1         0.0971
       3    H2      18.251876   20.062247   19.971119 H          1 MOL1         0.0971
       4    H3      18.169103   18.347660   20.419312 H          1 MOL1         0.0971
       5    C2      20.167008   19.231079   20.621263 C.3        1 MOL1        -0.1385
       6    H4      20.599615   20.199232   20.907193 H          1 MOL1         0.0960
       7    H5      20.472732   19.061173   19.579476 H          1 MOL1         0.0960
       8    C3      20.759347   18.099603   21.499661 C.3        1 MOL1        -0.1409
       9    H6      20.400672   17.131953   21.122640 H          1 MOL1         0.0960
      10    H7      21.850402   18.086045   21.370861 H          1 MOL1         0.0960
      11    C4      20.431093   18.198258   23.011655 C.3        1 MOL1        -0.1409
      12    H8      20.894485   17.342976   23.522363 H          1 MOL1         0.0960
      13    H9      19.348566   18.097188   23.151247 H          1 MOL1         0.0960
      14    C5      20.931514   19.511741   23.662419 C.3        1 MOL1        -0.1409
      15    H10     21.973886   19.682616   23.360053 H          1 MOL1         0.0960
      16    H11     20.354956   20.362287   23.274755 H          1 MOL1         0.0960
      17    C6      20.869385   19.521909   25.211131 C.3        1 MOL1        -0.1450
      18    H12     21.332731   20.454268   25.560190 H          1 MOL1         0.0960
      19    H13     21.480534   18.708662   25.624584 H          1 MOL1         0.0960
      20    C7      19.442123   19.460678   25.793815 C.3        1 MOL1         0.0172
      21    H14     19.458336   19.848647   26.815924 H          1 MOL1         0.0934
      22    H15     18.772584   20.091127   25.202599 H          1 MOL1         0.0934
      23    N1      18.855789   18.064032   25.861071 N.4        1 MOL1        -0.5956
      24    H16     17.907985   18.068276   26.253524 H          1 MOL1         0.3624
      25    H17     19.420265   17.444104   26.451082 H          1 MOL1         0.3624
      26    H18     18.798172   17.631185   24.935195 H          1 MOL1         0.3624
@<TRIPOS>BOND
    1     1     2    1
    2     1     3    1
    3     1     4    1
    4     1     5    1
    5     5     6    1
    6     5     7    1
    7     5     8    1
    8     8     9    1
    9     8    10    1
   10     8    11    1
   11    11    12    1
   12    11    13    1
   13    11    14    1
   14    14    15    1
   15    14    16    1
   16    14    17    1
   17    17    18    1
   18    17    19    1
   19    17    20    1
   20    20    21    1
   21    20    22    1
   22    20    23    1
   23    23    24    1
   24    23    25    1
   25    23    26    1
@<TRIPOS>SUBSTRUCTURE
       1 MOL1            1 RESIDUE      1      MOL     
@<SCITEGIC>MOL_PROPERTY
VM2 Rank
SciTegic.value.IntegerValue
140

@<SCITEGIC>MOL_PROPERTY
Conf_Id
SciTegic.value.IntegerValue
1252

@<SCITEGIC>MOL_PROPERTY
Probability
SciTegic.value.DoubleValue
0.01

@<SCITEGIC>MOL_PROPERTY
Sum Probability
SciTegic.value.DoubleValue
99.82

@<SCITEGIC>MOL_PROPERTY
Delta G
SciTegic.value.DoubleValue
3.944

@<SCITEGIC>MOL_PROPERTY
G
SciTegic.value.DoubleValue
52.205

@<SCITEGIC>MOL_PROPERTY
E
SciTegic.value.DoubleValue
19.259

@<SCITEGIC>MOL_PROPERTY
-TS
SciTegic.value.DoubleValue
32.946

@<SCITEGIC>MOL_PROPERTY
U+W
SciTegic.value.DoubleValue
-2.203

@<SCITEGIC>MOL_PROPERTY
U
SciTegic.value.DoubleValue
51.945

@<SCITEGIC>MOL_PROPERTY
W
SciTegic.value.DoubleValue
-54.148

@<SCITEGIC>MOL_PROPERTY
W(PB)
SciTegic.value.DoubleValue
-56.367

@<SCITEGIC>MOL_PROPERTY
W(SA)
SciTegic.value.DoubleValue
2.219

@<SCITEGIC>MOL_PROPERTY
Valence
SciTegic.value.DoubleValue
4.646

@<SCITEGIC>MOL_PROPERTY
Coulomb
SciTegic.value.DoubleValue
46.716

@<SCITEGIC>MOL_PROPERTY
VdW
SciTegic.value.DoubleValue
0.583

@<SCITEGIC>MOL_PROPERTY
VdW6
SciTegic.value.DoubleValue
-8.945

@<SCITEGIC>MOL_PROPERTY
VdW12
SciTegic.value.DoubleValue
9.528

@<SCITEGIC>MOL_PROPERTY
Bond
SciTegic.value.DoubleValue
0.266

@<SCITEGIC>MOL_PROPERTY
Angle
SciTegic.value.DoubleValue
1.504

@<SCITEGIC>MOL_PROPERTY
Pdih
SciTegic.value.DoubleValue
2.877

@<SCITEGIC>MOL_PROPERTY
Idih
SciTegic.value.DoubleValue
0.000

@<SCITEGIC>MOL_PROPERTY
Tether
SciTegic.value.DoubleValue
0.000

@<TRIPOS>MOLECULE
guest-s14_vm2.mol2 : vm2 ligand conformer 141
          26          25           1
SMALL
USER_CHARGES
 
@<TRIPOS>ATOM
       1    C1      20.594553   17.969273   19.850177 C.3        1 MOL1        -0.2400
       2    H1      21.381258   18.585112   19.395151 H          1 MOL1         0.0971
       3    H2      20.903997   16.918737   19.775147 H          1 MOL1         0.0971
       4    H3      19.677885   18.093772   19.259017 H          1 MOL1         0.0971
       5    C2      20.361847   18.364833   21.323821 C.3        1 MOL1        -0.1385
       6    H4      21.287163   18.205439   21.894749 H          1 MOL1         0.0960
       7    H5      19.597863   17.701927   21.750469 H          1 MOL1         0.0960
       8    C3      19.911963   19.837711   21.454671 C.3        1 MOL1        -0.1409
       9    H6      20.616600   20.475568   20.903345 H          1 MOL1         0.0960
      10    H7      18.936973   19.966429   20.964721 H          1 MOL1         0.0960
      11    C4      19.829395   20.356027   22.913675 C.3        1 MOL1        -0.1409
      12    H8      19.551392   21.418142   22.868831 H          1 MOL1         0.0960
      13    H9      20.825610   20.333845   23.373657 H          1 MOL1         0.0960
      14    C5      18.788768   19.625509   23.805914 C.3        1 MOL1        -0.1409
      15    H10     18.337319   20.357139   24.490458 H          1 MOL1         0.0960
      16    H11     17.962561   19.255722   23.183224 H          1 MOL1         0.0960
      17    C6      19.363354   18.464052   24.656133 C.3        1 MOL1        -0.1450
      18    H12     19.855122   17.722208   24.017151 H          1 MOL1         0.0960
      19    H13     18.531377   17.945124   25.150445 H          1 MOL1         0.0960
      20    C7      20.352542   18.951346   25.731881 C.3        1 MOL1         0.0172
      21    H14     21.209405   19.436205   25.257681 H          1 MOL1         0.0934
      22    H15     19.860065   19.680778   26.380542 H          1 MOL1         0.0934
      23    N1      20.878578   17.830250   26.604728 N.4        1 MOL1        -0.5956
      24    H16     21.378087   17.121719   26.057420 H          1 MOL1         0.3624
      25    H17     20.123745   17.349048   27.104580 H          1 MOL1         0.3624
      26    H18     21.533512   18.175728   27.314715 H          1 MOL1         0.3624
@<TRIPOS>BOND
    1     1     2    1
    2     1     3    1
    3     1     4    1
    4     1     5    1
    5     5     6    1
    6     5     7    1
    7     5     8    1
    8     8     9    1
    9     8    10    1
   10     8    11    1
   11    11    12    1
   12    11    13    1
   13    11    14    1
   14    14    15    1
   15    14    16    1
   16    14    17    1
   17    17    18    1
   18    17    19    1
   19    17    20    1
   20    20    21    1
   21    20    22    1
   22    20    23    1
   23    23    24    1
   24    23    25    1
   25    23    26    1
@<TRIPOS>SUBSTRUCTURE
       1 MOL1            1 RESIDUE      1      MOL     
@<SCITEGIC>MOL_PROPERTY
VM2 Rank
SciTegic.value.IntegerValue
141

@<SCITEGIC>MOL_PROPERTY
Conf_Id
SciTegic.value.IntegerValue
1102

@<SCITEGIC>MOL_PROPERTY
Probability
SciTegic.value.DoubleValue
0.01

@<SCITEGIC>MOL_PROPERTY
Sum Probability
SciTegic.value.DoubleValue
99.83

@<SCITEGIC>MOL_PROPERTY
Delta G
SciTegic.value.DoubleValue
3.977

@<SCITEGIC>MOL_PROPERTY
G
SciTegic.value.DoubleValue
52.238

@<SCITEGIC>MOL_PROPERTY
E
SciTegic.value.DoubleValue
19.461

@<SCITEGIC>MOL_PROPERTY
-TS
SciTegic.value.DoubleValue
32.778

@<SCITEGIC>MOL_PROPERTY
U+W
SciTegic.value.DoubleValue
-2.001

@<SCITEGIC>MOL_PROPERTY
U
SciTegic.value.DoubleValue
51.979

@<SCITEGIC>MOL_PROPERTY
W
SciTegic.value.DoubleValue
-53.980

@<SCITEGIC>MOL_PROPERTY
W(PB)
SciTegic.value.DoubleValue
-56.267

@<SCITEGIC>MOL_PROPERTY
W(SA)
SciTegic.value.DoubleValue
2.287

@<SCITEGIC>MOL_PROPERTY
Valence
SciTegic.value.DoubleValue
5.609

@<SCITEGIC>MOL_PROPERTY
Coulomb
SciTegic.value.DoubleValue
45.670

@<SCITEGIC>MOL_PROPERTY
VdW
SciTegic.value.DoubleValue
0.700

@<SCITEGIC>MOL_PROPERTY
VdW6
SciTegic.value.DoubleValue
-7.954

@<SCITEGIC>MOL_PROPERTY
VdW12
SciTegic.value.DoubleValue
8.655

@<SCITEGIC>MOL_PROPERTY
Bond
SciTegic.value.DoubleValue
0.250

@<SCITEGIC>MOL_PROPERTY
Angle
SciTegic.value.DoubleValue
1.398

@<SCITEGIC>MOL_PROPERTY
Pdih
SciTegic.value.DoubleValue
3.961

@<SCITEGIC>MOL_PROPERTY
Idih
SciTegic.value.DoubleValue
0.000

@<SCITEGIC>MOL_PROPERTY
Tether
SciTegic.value.DoubleValue
0.000

@<TRIPOS>MOLECULE
guest-s14_vm2.mol2 : vm2 ligand conformer 142
          26          25           1
SMALL
USER_CHARGES
 
@<TRIPOS>ATOM
       1    C1      19.936064   17.499978   20.329585 C.3        1 MOL1        -0.2400
       2    H1      20.278652   17.997366   19.412821 H          1 MOL1         0.0971
       3    H2      20.316527   16.470371   20.316332 H          1 MOL1         0.0971
       4    H3      18.839476   17.454424   20.304581 H          1 MOL1         0.0971
       5    C2      20.431169   18.247822   21.585533 C.3        1 MOL1        -0.1385
       6    H4      21.530035   18.247629   21.596736 H          1 MOL1         0.0960
       7    H5      20.108189   17.697484   22.476292 H          1 MOL1         0.0960
       8    C3      19.911000   19.705083   21.622255 C.3        1 MOL1        -0.1409
       9    H6      20.248289   20.208516   20.705597 H          1 MOL1         0.0960
      10    H7      18.812982   19.720092   21.588487 H          1 MOL1         0.0960
      11    C4      20.419024   20.522258   22.839200 C.3        1 MOL1        -0.1409
      12    H8      20.552957   21.562721   22.512174 H          1 MOL1         0.0960
      13    H9      21.419304   20.182834   23.139761 H          1 MOL1         0.0960
      14    C5      19.456829   20.545827   24.057569 C.3        1 MOL1        -0.1409
      15    H10     19.863889   21.235867   24.809653 H          1 MOL1         0.0960
      16    H11     18.495385   20.977194   23.746514 H          1 MOL1         0.0960
      17    C6      19.196541   19.178567   24.733281 C.3        1 MOL1        -0.1450
      18    H12     18.674946   18.509894   24.037622 H          1 MOL1         0.0960
      19    H13     18.514188   19.328509   25.580453 H          1 MOL1         0.0960
      20    C7      20.488537   18.514139   25.244538 C.3        1 MOL1         0.0172
      21    H14     21.170903   18.340285   24.408663 H          1 MOL1         0.0934
      22    H15     20.983616   19.176083   25.960126 H          1 MOL1         0.0934
      23    N1      20.241835   17.185325   25.929039 N.4        1 MOL1        -0.5956
      24    H16     19.629403   17.284970   26.745231 H          1 MOL1         0.3624
      25    H17     21.114331   16.760457   26.261516 H          1 MOL1         0.3624
      26    H18     19.799190   16.506985   25.300778 H          1 MOL1         0.3624
@<TRIPOS>BOND
    1     1     2    1
    2     1     3    1
    3     1     4    1
    4     1     5    1
    5     5     6    1
    6     5     7    1
    7     5     8    1
    8     8     9    1
    9     8    10    1
   10     8    11    1
   11    11    12    1
   12    11    13    1
   13    11    14    1
   14    14    15    1
   15    14    16    1
   16    14    17    1
   17    17    18    1
   18    17    19    1
   19    17    20    1
   20    20    21    1
   21    20    22    1
   22    20    23    1
   23    23    24    1
   24    23    25    1
   25    23    26    1
@<TRIPOS>SUBSTRUCTURE
       1 MOL1            1 RESIDUE      1      MOL     
@<SCITEGIC>MOL_PROPERTY
VM2 Rank
SciTegic.value.IntegerValue
142

@<SCITEGIC>MOL_PROPERTY
Conf_Id
SciTegic.value.IntegerValue
1341

@<SCITEGIC>MOL_PROPERTY
Probability
SciTegic.value.DoubleValue
0.01

@<SCITEGIC>MOL_PROPERTY
Sum Probability
SciTegic.value.DoubleValue
99.84

@<SCITEGIC>MOL_PROPERTY
Delta G
SciTegic.value.DoubleValue
4.014

@<SCITEGIC>MOL_PROPERTY
G
SciTegic.value.DoubleValue
52.276

@<SCITEGIC>MOL_PROPERTY
E
SciTegic.value.DoubleValue
19.189

@<SCITEGIC>MOL_PROPERTY
-TS
SciTegic.value.DoubleValue
33.086

@<SCITEGIC>MOL_PROPERTY
U+W
SciTegic.value.DoubleValue
-2.272

@<SCITEGIC>MOL_PROPERTY
U
SciTegic.value.DoubleValue
52.111

@<SCITEGIC>MOL_PROPERTY
W
SciTegic.value.DoubleValue
-54.383

@<SCITEGIC>MOL_PROPERTY
W(PB)
SciTegic.value.DoubleValue
-56.638

@<SCITEGIC>MOL_PROPERTY
W(SA)
SciTegic.value.DoubleValue
2.255

@<SCITEGIC>MOL_PROPERTY
Valence
SciTegic.value.DoubleValue
5.498

@<SCITEGIC>MOL_PROPERTY
Coulomb
SciTegic.value.DoubleValue
46.317

@<SCITEGIC>MOL_PROPERTY
VdW
SciTegic.value.DoubleValue
0.296

@<SCITEGIC>MOL_PROPERTY
VdW6
SciTegic.value.DoubleValue
-8.627

@<SCITEGIC>MOL_PROPERTY
VdW12
SciTegic.value.DoubleValue
8.923

@<SCITEGIC>MOL_PROPERTY
Bond
SciTegic.value.DoubleValue
0.245

@<SCITEGIC>MOL_PROPERTY
Angle
SciTegic.value.DoubleValue
1.578

@<SCITEGIC>MOL_PROPERTY
Pdih
SciTegic.value.DoubleValue
3.675

@<SCITEGIC>MOL_PROPERTY
Idih
SciTegic.value.DoubleValue
0.000

@<SCITEGIC>MOL_PROPERTY
Tether
SciTegic.value.DoubleValue
0.000

@<TRIPOS>MOLECULE
guest-s14_vm2.mol2 : vm2 ligand conformer 143
          26          25           1
SMALL
USER_CHARGES
 
@<TRIPOS>ATOM
       1    C1      18.430853   19.357531   21.285951 C.3        1 MOL1        -0.2400
       2    H1      17.872044   18.420035   21.402948 H          1 MOL1         0.0971
       3    H2      18.510616   19.830986   22.269990 H          1 MOL1         0.0971
       4    H3      17.833997   20.022905   20.648853 H          1 MOL1         0.0971
       5    C2      19.815797   19.100943   20.647638 C.3        1 MOL1        -0.1385
       6    H4      20.354978   20.048921   20.513220 H          1 MOL1         0.0960
       7    H5      19.650269   18.702575   19.636797 H          1 MOL1         0.0960
       8    C3      20.690947   18.089759   21.433241 C.3        1 MOL1        -0.1409
       9    H6      20.061726   17.332998   21.919680 H          1 MOL1         0.0960
      10    H7      21.296023   17.534414   20.703298 H          1 MOL1         0.0960
      11    C4      21.676129   18.726820   22.450611 C.3        1 MOL1        -0.1409
      12    H8      22.351055   19.405524   21.911200 H          1 MOL1         0.0960
      13    H9      22.317806   17.933726   22.858576 H          1 MOL1         0.0960
      14    C5      21.035470   19.499439   23.630202 C.3        1 MOL1        -0.1409
      15    H10     21.842823   19.925564   24.241828 H          1 MOL1         0.0960
      16    H11     20.466199   20.357402   23.251212 H          1 MOL1         0.0960
      17    C6      20.142334   18.616927   24.533675 C.3        1 MOL1        -0.1450
      18    H12     20.725361   17.765159   24.908260 H          1 MOL1         0.0960
      19    H13     19.306226   18.204474   23.955916 H          1 MOL1         0.0960
      20    C7      19.584622   19.418063   25.722985 C.3        1 MOL1         0.0172
      21    H14     20.410697   19.815271   26.319030 H          1 MOL1         0.0934
      22    H15     18.990940   20.258880   25.354205 H          1 MOL1         0.0934
      23    N1      18.704848   18.589517   26.636697 N.4        1 MOL1        -0.5956
      24    H16     19.213233   17.795306   27.039138 H          1 MOL1         0.3624
      25    H17     17.891638   18.208428   26.142199 H          1 MOL1         0.3624
      26    H18     18.344683   19.142197   27.422324 H          1 MOL1         0.3624
@<TRIPOS>BOND
    1     1     2    1
    2     1     3    1
    3     1     4    1
    4     1     5    1
    5     5     6    1
    6     5     7    1
    7     5     8    1
    8     8     9    1
    9     8    10    1
   10     8    11    1
   11    11    12    1
   12    11    13    1
   13    11    14    1
   14    14    15    1
   15    14    16    1
   16    14    17    1
   17    17    18    1
   18    17    19    1
   19    17    20    1
   20    20    21    1
   21    20    22    1
   22    20    23    1
   23    23    24    1
   24    23    25    1
   25    23    26    1
@<TRIPOS>SUBSTRUCTURE
       1 MOL1            1 RESIDUE      1      MOL     
@<SCITEGIC>MOL_PROPERTY
VM2 Rank
SciTegic.value.IntegerValue
143

@<SCITEGIC>MOL_PROPERTY
Conf_Id
SciTegic.value.IntegerValue
447

@<SCITEGIC>MOL_PROPERTY
Probability
SciTegic.value.DoubleValue
0.01

@<SCITEGIC>MOL_PROPERTY
Sum Probability
SciTegic.value.DoubleValue
99.85

@<SCITEGIC>MOL_PROPERTY
Delta G
SciTegic.value.DoubleValue
4.048

@<SCITEGIC>MOL_PROPERTY
G
SciTegic.value.DoubleValue
52.309

@<SCITEGIC>MOL_PROPERTY
E
SciTegic.value.DoubleValue
19.137

@<SCITEGIC>MOL_PROPERTY
-TS
SciTegic.value.DoubleValue
33.172

@<SCITEGIC>MOL_PROPERTY
U+W
SciTegic.value.DoubleValue
-2.324

@<SCITEGIC>MOL_PROPERTY
U
SciTegic.value.DoubleValue
51.692

@<SCITEGIC>MOL_PROPERTY
W
SciTegic.value.DoubleValue
-54.016

@<SCITEGIC>MOL_PROPERTY
W(PB)
SciTegic.value.DoubleValue
-56.249

@<SCITEGIC>MOL_PROPERTY
W(SA)
SciTegic.value.DoubleValue
2.233

@<SCITEGIC>MOL_PROPERTY
Valence
SciTegic.value.DoubleValue
5.738

@<SCITEGIC>MOL_PROPERTY
Coulomb
SciTegic.value.DoubleValue
45.542

@<SCITEGIC>MOL_PROPERTY
VdW
SciTegic.value.DoubleValue
0.411

@<SCITEGIC>MOL_PROPERTY
VdW6
SciTegic.value.DoubleValue
-8.566

@<SCITEGIC>MOL_PROPERTY
VdW12
SciTegic.value.DoubleValue
8.977

@<SCITEGIC>MOL_PROPERTY
Bond
SciTegic.value.DoubleValue
0.261

@<SCITEGIC>MOL_PROPERTY
Angle
SciTegic.value.DoubleValue
1.836

@<SCITEGIC>MOL_PROPERTY
Pdih
SciTegic.value.DoubleValue
3.641

@<SCITEGIC>MOL_PROPERTY
Idih
SciTegic.value.DoubleValue
0.000

@<SCITEGIC>MOL_PROPERTY
Tether
SciTegic.value.DoubleValue
0.000

@<TRIPOS>MOLECULE
guest-s14_vm2.mol2 : vm2 ligand conformer 144
          26          25           1
SMALL
USER_CHARGES
 
@<TRIPOS>ATOM
       1    C1      19.694881   19.705375   19.815620 C.3        1 MOL1        -0.2400
       2    H1      19.438688   19.505879   18.767051 H          1 MOL1         0.0971
       3    H2      19.119589   20.582169   20.140072 H          1 MOL1         0.0971
       4    H3      20.760801   19.961287   19.849982 H          1 MOL1         0.0971
       5    C2      19.373914   18.474003   20.693311 C.3        1 MOL1        -0.1385
       6    H4      19.985436   17.619230   20.372117 H          1 MOL1         0.0960
       7    H5      18.327685   18.184552   20.521720 H          1 MOL1         0.0960
       8    C3      19.574961   18.723869   22.207808 C.3        1 MOL1        -0.1409
       9    H6      18.981142   19.594251   22.518721 H          1 MOL1         0.0960
      10    H7      19.172138   17.855780   22.743986 H          1 MOL1         0.0960
      11    C4      21.057456   18.923284   22.609618 C.3        1 MOL1        -0.1409
      12    H8      21.501161   19.714343   21.992177 H          1 MOL1         0.0960
      13    H9      21.621623   18.008015   22.383826 H          1 MOL1         0.0960
      14    C5      21.275888   19.311040   24.095330 C.3        1 MOL1        -0.1409
      15    H10     22.354354   19.465349   24.238426 H          1 MOL1         0.0960
      16    H11     20.811795   20.284495   24.299729 H          1 MOL1         0.0960
      17    C6      20.805054   18.251955   25.127937 C.3        1 MOL1        -0.1450
      18    H12     21.410805   18.349053   26.038732 H          1 MOL1         0.0960
      19    H13     21.004806   17.244025   24.740783 H          1 MOL1         0.0960
      20    C7      19.318485   18.363741   25.527948 C.3        1 MOL1         0.0172
      21    H14     18.680794   18.305858   24.644249 H          1 MOL1         0.0934
      22    H15     19.060060   17.529950   26.186367 H          1 MOL1         0.0934
      23    N1      18.980360   19.645733   26.263428 N.4        1 MOL1        -0.5956
      24    H16     17.990798   19.681580   26.531148 H          1 MOL1         0.3624
      25    H17     19.166474   20.473574   25.689294 H          1 MOL1         0.3624
      26    H18     19.527016   19.745402   27.124931 H          1 MOL1         0.3624
@<TRIPOS>BOND
    1     1     2    1
    2     1     3    1
    3     1     4    1
    4     1     5    1
    5     5     6    1
    6     5     7    1
    7     5     8    1
    8     8     9    1
    9     8    10    1
   10     8    11    1
   11    11    12    1
   12    11    13    1
   13    11    14    1
   14    14    15    1
   15    14    16    1
   16    14    17    1
   17    17    18    1
   18    17    19    1
   19    17    20    1
   20    20    21    1
   21    20    22    1
   22    20    23    1
   23    23    24    1
   24    23    25    1
   25    23    26    1
@<TRIPOS>SUBSTRUCTURE
       1 MOL1            1 RESIDUE      1      MOL     
@<SCITEGIC>MOL_PROPERTY
VM2 Rank
SciTegic.value.IntegerValue
144

@<SCITEGIC>MOL_PROPERTY
Conf_Id
SciTegic.value.IntegerValue
514

@<SCITEGIC>MOL_PROPERTY
Probability
SciTegic.value.DoubleValue
0.01

@<SCITEGIC>MOL_PROPERTY
Sum Probability
SciTegic.value.DoubleValue
99.86

@<SCITEGIC>MOL_PROPERTY
Delta G
SciTegic.value.DoubleValue
4.090

@<SCITEGIC>MOL_PROPERTY
G
SciTegic.value.DoubleValue
52.352

@<SCITEGIC>MOL_PROPERTY
E
SciTegic.value.DoubleValue
19.546

@<SCITEGIC>MOL_PROPERTY
-TS
SciTegic.value.DoubleValue
32.806

@<SCITEGIC>MOL_PROPERTY
U+W
SciTegic.value.DoubleValue
-1.916

@<SCITEGIC>MOL_PROPERTY
U
SciTegic.value.DoubleValue
52.150

@<SCITEGIC>MOL_PROPERTY
W
SciTegic.value.DoubleValue
-54.067

@<SCITEGIC>MOL_PROPERTY
W(PB)
SciTegic.value.DoubleValue
-56.339

@<SCITEGIC>MOL_PROPERTY
W(SA)
SciTegic.value.DoubleValue
2.273

@<SCITEGIC>MOL_PROPERTY
Valence
SciTegic.value.DoubleValue
5.368

@<SCITEGIC>MOL_PROPERTY
Coulomb
SciTegic.value.DoubleValue
45.965

@<SCITEGIC>MOL_PROPERTY
VdW
SciTegic.value.DoubleValue
0.817

@<SCITEGIC>MOL_PROPERTY
VdW6
SciTegic.value.DoubleValue
-8.546

@<SCITEGIC>MOL_PROPERTY
VdW12
SciTegic.value.DoubleValue
9.363

@<SCITEGIC>MOL_PROPERTY
Bond
SciTegic.value.DoubleValue
0.273

@<SCITEGIC>MOL_PROPERTY
Angle
SciTegic.value.DoubleValue
1.632

@<SCITEGIC>MOL_PROPERTY
Pdih
SciTegic.value.DoubleValue
3.463

@<SCITEGIC>MOL_PROPERTY
Idih
SciTegic.value.DoubleValue
0.000

@<SCITEGIC>MOL_PROPERTY
Tether
SciTegic.value.DoubleValue
0.000

@<TRIPOS>MOLECULE
guest-s14_vm2.mol2 : vm2 ligand conformer 145
          26          25           1
SMALL
USER_CHARGES
 
@<TRIPOS>ATOM
       1    C1      18.885990   19.738967   20.590545 C.3        1 MOL1        -0.2400
       2    H1      18.102204   19.417456   21.288553 H          1 MOL1         0.0971
       3    H2      19.389227   20.618696   21.009984 H          1 MOL1         0.0971
       4    H3      18.398119   20.054024   19.659107 H          1 MOL1         0.0971
       5    C2      19.889140   18.597859   20.314835 C.3        1 MOL1        -0.1385
       6    H4      20.696904   18.970031   19.669299 H          1 MOL1         0.0960
       7    H5      19.378865   17.811975   19.740586 H          1 MOL1         0.0960
       8    C3      20.494378   17.959133   21.590848 C.3        1 MOL1        -0.1409
       9    H6      19.698870   17.494021   22.185728 H          1 MOL1         0.0960
      10    H7      21.141882   17.131903   21.268863 H          1 MOL1         0.0960
      11    C4      21.346746   18.926255   22.457477 C.3        1 MOL1        -0.1409
      12    H8      21.800777   19.689643   21.810854 H          1 MOL1         0.0960
      13    H9      22.189891   18.367715   22.886868 H          1 MOL1         0.0960
      14    C5      20.581618   19.618550   23.615829 C.3        1 MOL1        -0.1409
      15    H10     21.217712   20.417788   24.020926 H          1 MOL1         0.0960
      16    H11     19.676651   20.110656   23.240141 H          1 MOL1         0.0960
      17    C6      20.207770   18.654740   24.767090 C.3        1 MOL1        -0.1450
      18    H12     21.112207   18.155498   25.139342 H          1 MOL1         0.0960
      19    H13     19.533230   17.869627   24.404375 H          1 MOL1         0.0960
      20    C7      19.526869   19.404932   25.925379 C.3        1 MOL1         0.0172
      21    H14     20.198984   20.177054   26.309492 H          1 MOL1         0.0934
      22    H15     18.615924   19.890152   25.564541 H          1 MOL1         0.0934
      23    N1      19.148489   18.498563   27.078997 N.4        1 MOL1        -0.5956
      24    H16     18.493861   17.764473   26.789620 H          1 MOL1         0.3624
      25    H17     18.696969   19.018382   27.839480 H          1 MOL1         0.3624
      26    H18     19.967218   18.031280   27.482167 H          1 MOL1         0.3624
@<TRIPOS>BOND
    1     1     2    1
    2     1     3    1
    3     1     4    1
    4     1     5    1
    5     5     6    1
    6     5     7    1
    7     5     8    1
    8     8     9    1
    9     8    10    1
   10     8    11    1
   11    11    12    1
   12    11    13    1
   13    11    14    1
   14    14    15    1
   15    14    16    1
   16    14    17    1
   17    17    18    1
   18    17    19    1
   19    17    20    1
   20    20    21    1
   21    20    22    1
   22    20    23    1
   23    23    24    1
   24    23    25    1
   25    23    26    1
@<TRIPOS>SUBSTRUCTURE
       1 MOL1            1 RESIDUE      1      MOL     
@<SCITEGIC>MOL_PROPERTY
VM2 Rank
SciTegic.value.IntegerValue
145

@<SCITEGIC>MOL_PROPERTY
Conf_Id
SciTegic.value.IntegerValue
569

@<SCITEGIC>MOL_PROPERTY
Probability
SciTegic.value.DoubleValue
0.01

@<SCITEGIC>MOL_PROPERTY
Sum Probability
SciTegic.value.DoubleValue
99.87

@<SCITEGIC>MOL_PROPERTY
Delta G
SciTegic.value.DoubleValue
4.101

@<SCITEGIC>MOL_PROPERTY
G
SciTegic.value.DoubleValue
52.362

@<SCITEGIC>MOL_PROPERTY
E
SciTegic.value.DoubleValue
19.627

@<SCITEGIC>MOL_PROPERTY
-TS
SciTegic.value.DoubleValue
32.735

@<SCITEGIC>MOL_PROPERTY
U+W
SciTegic.value.DoubleValue
-1.835

@<SCITEGIC>MOL_PROPERTY
U
SciTegic.value.DoubleValue
51.747

@<SCITEGIC>MOL_PROPERTY
W
SciTegic.value.DoubleValue
-53.581

@<SCITEGIC>MOL_PROPERTY
W(PB)
SciTegic.value.DoubleValue
-55.842

@<SCITEGIC>MOL_PROPERTY
W(SA)
SciTegic.value.DoubleValue
2.260

@<SCITEGIC>MOL_PROPERTY
Valence
SciTegic.value.DoubleValue
5.867

@<SCITEGIC>MOL_PROPERTY
Coulomb
SciTegic.value.DoubleValue
45.077

@<SCITEGIC>MOL_PROPERTY
VdW
SciTegic.value.DoubleValue
0.803

@<SCITEGIC>MOL_PROPERTY
VdW6
SciTegic.value.DoubleValue
-7.888

@<SCITEGIC>MOL_PROPERTY
VdW12
SciTegic.value.DoubleValue
8.691

@<SCITEGIC>MOL_PROPERTY
Bond
SciTegic.value.DoubleValue
0.267

@<SCITEGIC>MOL_PROPERTY
Angle
SciTegic.value.DoubleValue
1.476

@<SCITEGIC>MOL_PROPERTY
Pdih
SciTegic.value.DoubleValue
4.125

@<SCITEGIC>MOL_PROPERTY
Idih
SciTegic.value.DoubleValue
0.000

@<SCITEGIC>MOL_PROPERTY
Tether
SciTegic.value.DoubleValue
0.000

@<TRIPOS>MOLECULE
guest-s14_vm2.mol2 : vm2 ligand conformer 146
          26          25           1
SMALL
USER_CHARGES
 
@<TRIPOS>ATOM
       1    C1      20.019940   19.947563   20.294663 C.3        1 MOL1        -0.2400
       2    H1      20.259133   19.259269   19.473711 H          1 MOL1         0.0971
       3    H2      18.944744   19.876473   20.500966 H          1 MOL1         0.0971
       4    H3      20.223316   20.968713   19.947227 H          1 MOL1         0.0971
       5    C2      20.859302   19.625879   21.551555 C.3        1 MOL1        -0.1385
       6    H4      20.590727   20.318963   22.358944 H          1 MOL1         0.0960
       7    H5      21.917980   19.818203   21.328426 H          1 MOL1         0.0960
       8    C3      20.713414   18.157505   22.026721 C.3        1 MOL1        -0.1409
       9    H6      21.068066   17.494469   21.225679 H          1 MOL1         0.0960
      10    H7      21.390402   17.975636   22.870526 H          1 MOL1         0.0960
      11    C4      19.273885   17.728251   22.414485 C.3        1 MOL1        -0.1409
      12    H8      19.296119   16.677071   22.733046 H          1 MOL1         0.0960
      13    H9      18.644654   17.744067   21.514680 H          1 MOL1         0.0960
      14    C5      18.578434   18.570770   23.517950 C.3        1 MOL1        -0.1409
      15    H10     18.484271   19.619325   23.205660 H          1 MOL1         0.0960
      16    H11     17.547886   18.200598   23.608621 H          1 MOL1         0.0960
      17    C6      19.235998   18.482575   24.918673 C.3        1 MOL1        -0.1450
      18    H12     19.577512   17.456724   25.110192 H          1 MOL1         0.0960
      19    H13     18.470862   18.700356   25.675705 H          1 MOL1         0.0960
      20    C7      20.397122   19.475643   25.114962 C.3        1 MOL1         0.0172
      21    H14     21.192335   19.274593   24.395174 H          1 MOL1         0.0934
      22    H15     20.038013   20.495380   24.952279 H          1 MOL1         0.0934
      23    N1      21.002905   19.410813   26.501991 N.4        1 MOL1        -0.5956
      24    H16     21.771221   20.081145   26.614361 H          1 MOL1         0.3624
      25    H17     21.384119   18.481941   26.709283 H          1 MOL1         0.3624
      26    H18     20.313123   19.622988   27.230220 H          1 MOL1         0.3624
@<TRIPOS>BOND
    1     1     2    1
    2     1     3    1
    3     1     4    1
    4     1     5    1
    5     5     6    1
    6     5     7    1
    7     5     8    1
    8     8     9    1
    9     8    10    1
   10     8    11    1
   11    11    12    1
   12    11    13    1
   13    11    14    1
   14    14    15    1
   15    14    16    1
   16    14    17    1
   17    17    18    1
   18    17    19    1
   19    17    20    1
   20    20    21    1
   21    20    22    1
   22    20    23    1
   23    23    24    1
   24    23    25    1
   25    23    26    1
@<TRIPOS>SUBSTRUCTURE
       1 MOL1            1 RESIDUE      1      MOL     
@<SCITEGIC>MOL_PROPERTY
VM2 Rank
SciTegic.value.IntegerValue
146

@<SCITEGIC>MOL_PROPERTY
Conf_Id
SciTegic.value.IntegerValue
1315

@<SCITEGIC>MOL_PROPERTY
Probability
SciTegic.value.DoubleValue
0.01

@<SCITEGIC>MOL_PROPERTY
Sum Probability
SciTegic.value.DoubleValue
99.88

@<SCITEGIC>MOL_PROPERTY
Delta G
SciTegic.value.DoubleValue
4.112

@<SCITEGIC>MOL_PROPERTY
G
SciTegic.value.DoubleValue
52.374

@<SCITEGIC>MOL_PROPERTY
E
SciTegic.value.DoubleValue
18.963

@<SCITEGIC>MOL_PROPERTY
-TS
SciTegic.value.DoubleValue
33.411

@<SCITEGIC>MOL_PROPERTY
U+W
SciTegic.value.DoubleValue
-2.499

@<SCITEGIC>MOL_PROPERTY
U
SciTegic.value.DoubleValue
51.820

@<SCITEGIC>MOL_PROPERTY
W
SciTegic.value.DoubleValue
-54.320

@<SCITEGIC>MOL_PROPERTY
W(PB)
SciTegic.value.DoubleValue
-56.541

@<SCITEGIC>MOL_PROPERTY
W(SA)
SciTegic.value.DoubleValue
2.221

@<SCITEGIC>MOL_PROPERTY
Valence
SciTegic.value.DoubleValue
5.497

@<SCITEGIC>MOL_PROPERTY
Coulomb
SciTegic.value.DoubleValue
46.010

@<SCITEGIC>MOL_PROPERTY
VdW
SciTegic.value.DoubleValue
0.313

@<SCITEGIC>MOL_PROPERTY
VdW6
SciTegic.value.DoubleValue
-9.491

@<SCITEGIC>MOL_PROPERTY
VdW12
SciTegic.value.DoubleValue
9.804

@<SCITEGIC>MOL_PROPERTY
Bond
SciTegic.value.DoubleValue
0.285

@<SCITEGIC>MOL_PROPERTY
Angle
SciTegic.value.DoubleValue
2.062

@<SCITEGIC>MOL_PROPERTY
Pdih
SciTegic.value.DoubleValue
3.150

@<SCITEGIC>MOL_PROPERTY
Idih
SciTegic.value.DoubleValue
0.000

@<SCITEGIC>MOL_PROPERTY
Tether
SciTegic.value.DoubleValue
0.000

@<TRIPOS>MOLECULE
guest-s14_vm2.mol2 : vm2 ligand conformer 147
          26          25           1
SMALL
USER_CHARGES
 
@<TRIPOS>ATOM
       1    C1      20.862938   17.627314   20.962420 C.3        1 MOL1        -0.2400
       2    H1      20.770498   16.538944   20.854309 H          1 MOL1         0.0971
       3    H2      21.384756   18.009259   20.075438 H          1 MOL1         0.0971
       4    H3      21.493667   17.821231   21.838177 H          1 MOL1         0.0971
       5    C2      19.467990   18.277881   21.105627 C.3        1 MOL1        -0.1385
       6    H4      18.946518   17.874195   21.982616 H          1 MOL1         0.0960
       7    H5      18.857278   17.988369   20.239109 H          1 MOL1         0.0960
       8    C3      19.516478   19.823777   21.175494 C.3        1 MOL1        -0.1409
       9    H6      19.961015   20.201276   20.244339 H          1 MOL1         0.0960
      10    H7      18.487592   20.208853   21.189933 H          1 MOL1         0.0960
      11    C4      20.295501   20.429400   22.374369 C.3        1 MOL1        -0.1409
      12    H8      20.302484   21.519528   22.236849 H          1 MOL1         0.0960
      13    H9      21.351030   20.128645   22.344817 H          1 MOL1         0.0960
      14    C5      19.681676   20.133379   23.768264 C.3        1 MOL1        -0.1409
      15    H10     19.844583   21.011084   24.409260 H          1 MOL1         0.0960
      16    H11     18.592171   20.018050   23.684789 H          1 MOL1         0.0960
      17    C6      20.299819   18.904279   24.476347 C.3        1 MOL1        -0.1450
      18    H12     21.384636   19.043352   24.574280 H          1 MOL1         0.0960
      19    H13     20.146858   17.997939   23.880942 H          1 MOL1         0.0960
      20    C7      19.686371   18.696369   25.872111 C.3        1 MOL1         0.0172
      21    H14     19.854586   19.586404   26.484474 H          1 MOL1         0.0934
      22    H15     18.608045   18.540518   25.780596 H          1 MOL1         0.0934
      23    N1      20.270228   17.506600   26.606368 N.4        1 MOL1        -0.5956
      24    H16     20.120617   16.630645   26.095070 H          1 MOL1         0.3624
      25    H17     19.847876   17.386921   27.533574 H          1 MOL1         0.3624
      26    H18     21.280760   17.604266   26.749442 H          1 MOL1         0.3624
@<TRIPOS>BOND
    1     1     2    1
    2     1     3    1
    3     1     4    1
    4     1     5    1
    5     5     6    1
    6     5     7    1
    7     5     8    1
    8     8     9    1
    9     8    10    1
   10     8    11    1
   11    11    12    1
   12    11    13    1
   13    11    14    1
   14    14    15    1
   15    14    16    1
   16    14    17    1
   17    17    18    1
   18    17    19    1
   19    17    20    1
   20    20    21    1
   21    20    22    1
   22    20    23    1
   23    23    24    1
   24    23    25    1
   25    23    26    1
@<TRIPOS>SUBSTRUCTURE
       1 MOL1            1 RESIDUE      1      MOL     
@<SCITEGIC>MOL_PROPERTY
VM2 Rank
SciTegic.value.IntegerValue
147

@<SCITEGIC>MOL_PROPERTY
Conf_Id
SciTegic.value.IntegerValue
1085

@<SCITEGIC>MOL_PROPERTY
Probability
SciTegic.value.DoubleValue
0.01

@<SCITEGIC>MOL_PROPERTY
Sum Probability
SciTegic.value.DoubleValue
99.88

@<SCITEGIC>MOL_PROPERTY
Delta G
SciTegic.value.DoubleValue
4.125

@<SCITEGIC>MOL_PROPERTY
G
SciTegic.value.DoubleValue
52.386

@<SCITEGIC>MOL_PROPERTY
E
SciTegic.value.DoubleValue
19.225

@<SCITEGIC>MOL_PROPERTY
-TS
SciTegic.value.DoubleValue
33.161

@<SCITEGIC>MOL_PROPERTY
U+W
SciTegic.value.DoubleValue
-2.237

@<SCITEGIC>MOL_PROPERTY
U
SciTegic.value.DoubleValue
51.714

@<SCITEGIC>MOL_PROPERTY
W
SciTegic.value.DoubleValue
-53.951

@<SCITEGIC>MOL_PROPERTY
W(PB)
SciTegic.value.DoubleValue
-56.213

@<SCITEGIC>MOL_PROPERTY
W(SA)
SciTegic.value.DoubleValue
2.262

@<SCITEGIC>MOL_PROPERTY
Valence
SciTegic.value.DoubleValue
5.770

@<SCITEGIC>MOL_PROPERTY
Coulomb
SciTegic.value.DoubleValue
45.469

@<SCITEGIC>MOL_PROPERTY
VdW
SciTegic.value.DoubleValue
0.475

@<SCITEGIC>MOL_PROPERTY
VdW6
SciTegic.value.DoubleValue
-8.435

@<SCITEGIC>MOL_PROPERTY
VdW12
SciTegic.value.DoubleValue
8.910

@<SCITEGIC>MOL_PROPERTY
Bond
SciTegic.value.DoubleValue
0.260

@<SCITEGIC>MOL_PROPERTY
Angle
SciTegic.value.DoubleValue
1.769

@<SCITEGIC>MOL_PROPERTY
Pdih
SciTegic.value.DoubleValue
3.741

@<SCITEGIC>MOL_PROPERTY
Idih
SciTegic.value.DoubleValue
0.000

@<SCITEGIC>MOL_PROPERTY
Tether
SciTegic.value.DoubleValue
0.000

@<TRIPOS>MOLECULE
guest-s14_vm2.mol2 : vm2 ligand conformer 148
          26          25           1
SMALL
USER_CHARGES
 
@<TRIPOS>ATOM
       1    C1      19.206434   19.411081   20.267508 C.3        1 MOL1        -0.2400
       2    H1      19.684386   20.364262   20.525713 H          1 MOL1         0.0971
       3    H2      19.782846   18.945236   19.457778 H          1 MOL1         0.0971
       4    H3      18.204804   19.637566   19.879872 H          1 MOL1         0.0971
       5    C2      19.113838   18.474698   21.493233 C.3        1 MOL1        -0.1385
       6    H4      18.531845   17.584981   21.215274 H          1 MOL1         0.0960
       7    H5      18.545150   18.969822   22.290616 H          1 MOL1         0.0960
       8    C3      20.497718   18.015219   22.019485 C.3        1 MOL1        -0.1409
       9    H6      20.359670   17.295774   22.836024 H          1 MOL1         0.0960
      10    H7      21.004732   17.452705   21.223507 H          1 MOL1         0.0960
      11    C4      21.439203   19.156286   22.486855 C.3        1 MOL1        -0.1409
      12    H8      21.713676   19.768074   21.617252 H          1 MOL1         0.0960
      13    H9      22.381133   18.711668   22.836193 H          1 MOL1         0.0960
      14    C5      20.887053   20.093365   23.595073 C.3        1 MOL1        -0.1409
      15    H10     21.627497   20.891218   23.744908 H          1 MOL1         0.0960
      16    H11     19.975467   20.602797   23.255440 H          1 MOL1         0.0960
      17    C6      20.644654   19.411684   24.965746 C.3        1 MOL1        -0.1450
      18    H12     20.709750   20.177129   25.750487 H          1 MOL1         0.0960
      19    H13     21.443927   18.687775   25.172632 H          1 MOL1         0.0960
      20    C7      19.267494   18.730559   25.077195 C.3        1 MOL1         0.0172
      21    H14     18.479393   19.467321   24.900082 H          1 MOL1         0.0934
      22    H15     19.173502   17.942919   24.327748 H          1 MOL1         0.0934
      23    N1      19.024606   18.106108   26.435904 N.4        1 MOL1        -0.5956
      24    H16     19.066538   18.801042   27.188529 H          1 MOL1         0.3624
      25    H17     19.718528   17.383536   26.653758 H          1 MOL1         0.3624
      26    H18     18.102044   17.661092   26.491744 H          1 MOL1         0.3624
@<TRIPOS>BOND
    1     1     2    1
    2     1     3    1
    3     1     4    1
    4     1     5    1
    5     5     6    1
    6     5     7    1
    7     5     8    1
    8     8     9    1
    9     8    10    1
   10     8    11    1
   11    11    12    1
   12    11    13    1
   13    11    14    1
   14    14    15    1
   15    14    16    1
   16    14    17    1
   17    17    18    1
   18    17    19    1
   19    17    20    1
   20    20    21    1
   21    20    22    1
   22    20    23    1
   23    23    24    1
   24    23    25    1
   25    23    26    1
@<TRIPOS>SUBSTRUCTURE
       1 MOL1            1 RESIDUE      1      MOL     
@<SCITEGIC>MOL_PROPERTY
VM2 Rank
SciTegic.value.IntegerValue
148

@<SCITEGIC>MOL_PROPERTY
Conf_Id
SciTegic.value.IntegerValue
159

@<SCITEGIC>MOL_PROPERTY
Probability
SciTegic.value.DoubleValue
0.01

@<SCITEGIC>MOL_PROPERTY
Sum Probability
SciTegic.value.DoubleValue
99.89

@<SCITEGIC>MOL_PROPERTY
Delta G
SciTegic.value.DoubleValue
4.138

@<SCITEGIC>MOL_PROPERTY
G
SciTegic.value.DoubleValue
52.399

@<SCITEGIC>MOL_PROPERTY
E
SciTegic.value.DoubleValue
18.988

@<SCITEGIC>MOL_PROPERTY
-TS
SciTegic.value.DoubleValue
33.411

@<SCITEGIC>MOL_PROPERTY
U+W
SciTegic.value.DoubleValue
-2.473

@<SCITEGIC>MOL_PROPERTY
U
SciTegic.value.DoubleValue
51.820

@<SCITEGIC>MOL_PROPERTY
W
SciTegic.value.DoubleValue
-54.294

@<SCITEGIC>MOL_PROPERTY
W(PB)
SciTegic.value.DoubleValue
-56.510

@<SCITEGIC>MOL_PROPERTY
W(SA)
SciTegic.value.DoubleValue
2.216

@<SCITEGIC>MOL_PROPERTY
Valence
SciTegic.value.DoubleValue
5.497

@<SCITEGIC>MOL_PROPERTY
Coulomb
SciTegic.value.DoubleValue
46.010

@<SCITEGIC>MOL_PROPERTY
VdW
SciTegic.value.DoubleValue
0.313

@<SCITEGIC>MOL_PROPERTY
VdW6
SciTegic.value.DoubleValue
-9.491

@<SCITEGIC>MOL_PROPERTY
VdW12
SciTegic.value.DoubleValue
9.804

@<SCITEGIC>MOL_PROPERTY
Bond
SciTegic.value.DoubleValue
0.285

@<SCITEGIC>MOL_PROPERTY
Angle
SciTegic.value.DoubleValue
2.062

@<SCITEGIC>MOL_PROPERTY
Pdih
SciTegic.value.DoubleValue
3.149

@<SCITEGIC>MOL_PROPERTY
Idih
SciTegic.value.DoubleValue
0.000

@<SCITEGIC>MOL_PROPERTY
Tether
SciTegic.value.DoubleValue
0.000

@<TRIPOS>MOLECULE
guest-s14_vm2.mol2 : vm2 ligand conformer 149
          26          25           1
SMALL
USER_CHARGES
 
@<TRIPOS>ATOM
       1    C1      21.209479   18.952593   20.267774 C.3        1 MOL1        -0.2400
       2    H1      21.799620   19.271128   21.136126 H          1 MOL1         0.0971
       3    H2      21.439629   17.899218   20.061938 H          1 MOL1         0.0971
       4    H3      21.544083   19.544530   19.406096 H          1 MOL1         0.0971
       5    C2      19.696217   19.153866   20.507995 C.3        1 MOL1        -0.1385
       6    H4      19.158861   18.940956   19.573332 H          1 MOL1         0.0960
       7    H5      19.493886   20.209098   20.734097 H          1 MOL1         0.0960
       8    C3      19.120897   18.244027   21.623757 C.3        1 MOL1        -0.1409
       9    H6      18.044253   18.440474   21.720828 H          1 MOL1         0.0960
      10    H7      19.206502   17.197008   21.301883 H          1 MOL1         0.0960
      11    C4      19.787935   18.387926   23.016726 C.3        1 MOL1        -0.1409
      12    H8      20.847450   18.106624   22.955104 H          1 MOL1         0.0960
      13    H9      19.310936   17.660460   23.684139 H          1 MOL1         0.0960
      14    C5      19.651615   19.805423   23.627004 C.3        1 MOL1        -0.1409
      15    H10     20.055845   20.545207   22.924545 H          1 MOL1         0.0960
      16    H11     18.587697   20.049243   23.752487 H          1 MOL1         0.0960
      17    C6      20.387330   19.994203   24.978420 C.3        1 MOL1        -0.1450
      18    H12     20.288868   21.048508   25.269273 H          1 MOL1         0.0960
      19    H13     21.463826   19.815324   24.855900 H          1 MOL1         0.0960
      20    C7      19.836339   19.135738   26.135896 C.3        1 MOL1         0.0172
      21    H14     20.095819   19.611155   27.085706 H          1 MOL1         0.0934
      22    H15     18.746364   19.080234   26.071343 H          1 MOL1         0.0934
      23    N1      20.391189   17.725225   26.183429 N.4        1 MOL1        -0.5956
      24    H16     21.409630   17.722267   26.301017 H          1 MOL1         0.3624
      25    H17     20.184341   17.205382   25.326123 H          1 MOL1         0.3624
      26    H18     19.999053   17.188805   26.965012 H          1 MOL1         0.3624
@<TRIPOS>BOND
    1     1     2    1
    2     1     3    1
    3     1     4    1
    4     1     5    1
    5     5     6    1
    6     5     7    1
    7     5     8    1
    8     8     9    1
    9     8    10    1
   10     8    11    1
   11    11    12    1
   12    11    13    1
   13    11    14    1
   14    14    15    1
   15    14    16    1
   16    14    17    1
   17    17    18    1
   18    17    19    1
   19    17    20    1
   20    20    21    1
   21    20    22    1
   22    20    23    1
   23    23    24    1
   24    23    25    1
   25    23    26    1
@<TRIPOS>SUBSTRUCTURE
       1 MOL1            1 RESIDUE      1      MOL     
@<SCITEGIC>MOL_PROPERTY
VM2 Rank
SciTegic.value.IntegerValue
149

@<SCITEGIC>MOL_PROPERTY
Conf_Id
SciTegic.value.IntegerValue
525

@<SCITEGIC>MOL_PROPERTY
Probability
SciTegic.value.DoubleValue
0.01

@<SCITEGIC>MOL_PROPERTY
Sum Probability
SciTegic.value.DoubleValue
99.90

@<SCITEGIC>MOL_PROPERTY
Delta G
SciTegic.value.DoubleValue
4.163

@<SCITEGIC>MOL_PROPERTY
G
SciTegic.value.DoubleValue
52.424

@<SCITEGIC>MOL_PROPERTY
E
SciTegic.value.DoubleValue
19.578

@<SCITEGIC>MOL_PROPERTY
-TS
SciTegic.value.DoubleValue
32.846

@<SCITEGIC>MOL_PROPERTY
U+W
SciTegic.value.DoubleValue
-1.883

@<SCITEGIC>MOL_PROPERTY
U
SciTegic.value.DoubleValue
52.060

@<SCITEGIC>MOL_PROPERTY
W
SciTegic.value.DoubleValue
-53.943

@<SCITEGIC>MOL_PROPERTY
W(PB)
SciTegic.value.DoubleValue
-56.191

@<SCITEGIC>MOL_PROPERTY
W(SA)
SciTegic.value.DoubleValue
2.247

@<SCITEGIC>MOL_PROPERTY
Valence
SciTegic.value.DoubleValue
4.855

@<SCITEGIC>MOL_PROPERTY
Coulomb
SciTegic.value.DoubleValue
46.488

@<SCITEGIC>MOL_PROPERTY
VdW
SciTegic.value.DoubleValue
0.717

@<SCITEGIC>MOL_PROPERTY
VdW6
SciTegic.value.DoubleValue
-8.768

@<SCITEGIC>MOL_PROPERTY
VdW12
SciTegic.value.DoubleValue
9.485

@<SCITEGIC>MOL_PROPERTY
Bond
SciTegic.value.DoubleValue
0.277

@<SCITEGIC>MOL_PROPERTY
Angle
SciTegic.value.DoubleValue
1.730

@<SCITEGIC>MOL_PROPERTY
Pdih
SciTegic.value.DoubleValue
2.847

@<SCITEGIC>MOL_PROPERTY
Idih
SciTegic.value.DoubleValue
0.000

@<SCITEGIC>MOL_PROPERTY
Tether
SciTegic.value.DoubleValue
0.000

@<TRIPOS>MOLECULE
guest-s14_vm2.mol2 : vm2 ligand conformer 150
          26          25           1
SMALL
USER_CHARGES
 
@<TRIPOS>ATOM
       1    C1      19.651863   17.928696   20.215181 C.3        1 MOL1        -0.2400
       2    H1      19.016808   17.883187   19.321049 H          1 MOL1         0.0971
       3    H2      20.537015   17.306168   20.031061 H          1 MOL1         0.0971
       4    H3      19.085976   17.486657   21.044723 H          1 MOL1         0.0971
       5    C2      20.053749   19.389445   20.519936 C.3        1 MOL1        -0.1385
       6    H4      19.154966   19.986552   20.722986 H          1 MOL1         0.0960
       7    H5      20.504930   19.827020   19.618470 H          1 MOL1         0.0960
       8    C3      21.063759   19.521850   21.688724 C.3        1 MOL1        -0.1409
       9    H6      22.005598   19.038101   21.395290 H          1 MOL1         0.0960
      10    H7      21.304251   20.584546   21.830207 H          1 MOL1         0.0960
      11    C4      20.603325   18.923709   23.043802 C.3        1 MOL1        -0.1409
      12    H8      21.427998   19.052379   23.754798 H          1 MOL1         0.0960
      13    H9      20.446024   17.841937   22.941190 H          1 MOL1         0.0960
      14    C5      19.327965   19.591749   23.616077 C.3        1 MOL1        -0.1409
      15    H10     19.518226   20.660831   23.783350 H          1 MOL1         0.0960
      16    H11     18.522266   19.535347   22.873242 H          1 MOL1         0.0960
      17    C6      18.801510   18.950094   24.925413 C.3        1 MOL1        -0.1450
      18    H12     18.547147   17.894933   24.758717 H          1 MOL1         0.0960
      19    H13     17.859005   19.448818   25.187727 H          1 MOL1         0.0960
      20    C7      19.752467   19.081080   26.133233 C.3        1 MOL1         0.0172
      21    H14     20.235897   20.061612   26.121083 H          1 MOL1         0.0934
      22    H15     19.169405   19.002089   27.054802 H          1 MOL1         0.0934
      23    N1      20.826361   18.012376   26.198634 N.4        1 MOL1        -0.5956
      24    H16     21.425142   18.022673   25.368364 H          1 MOL1         0.3624
      25    H17     20.422312   17.072766   26.268880 H          1 MOL1         0.3624
      26    H18     21.436693   18.136399   27.013804 H          1 MOL1         0.3624
@<TRIPOS>BOND
    1     1     2    1
    2     1     3    1
    3     1     4    1
    4     1     5    1
    5     5     6    1
    6     5     7    1
    7     5     8    1
    8     8     9    1
    9     8    10    1
   10     8    11    1
   11    11    12    1
   12    11    13    1
   13    11    14    1
   14    14    15    1
   15    14    16    1
   16    14    17    1
   17    17    18    1
   18    17    19    1
   19    17    20    1
   20    20    21    1
   21    20    22    1
   22    20    23    1
   23    23    24    1
   24    23    25    1
   25    23    26    1
@<TRIPOS>SUBSTRUCTURE
       1 MOL1            1 RESIDUE      1      MOL     
@<SCITEGIC>MOL_PROPERTY
VM2 Rank
SciTegic.value.IntegerValue
150

@<SCITEGIC>MOL_PROPERTY
Conf_Id
SciTegic.value.IntegerValue
765

@<SCITEGIC>MOL_PROPERTY
Probability
SciTegic.value.DoubleValue
0.01

@<SCITEGIC>MOL_PROPERTY
Sum Probability
SciTegic.value.DoubleValue
99.91

@<SCITEGIC>MOL_PROPERTY
Delta G
SciTegic.value.DoubleValue
4.172

@<SCITEGIC>MOL_PROPERTY
G
SciTegic.value.DoubleValue
52.433

@<SCITEGIC>MOL_PROPERTY
E
SciTegic.value.DoubleValue
19.589

@<SCITEGIC>MOL_PROPERTY
-TS
SciTegic.value.DoubleValue
32.844

@<SCITEGIC>MOL_PROPERTY
U+W
SciTegic.value.DoubleValue
-1.873

@<SCITEGIC>MOL_PROPERTY
U
SciTegic.value.DoubleValue
52.059

@<SCITEGIC>MOL_PROPERTY
W
SciTegic.value.DoubleValue
-53.932

@<SCITEGIC>MOL_PROPERTY
W(PB)
SciTegic.value.DoubleValue
-56.175

@<SCITEGIC>MOL_PROPERTY
W(SA)
SciTegic.value.DoubleValue
2.243

@<SCITEGIC>MOL_PROPERTY
Valence
SciTegic.value.DoubleValue
4.855

@<SCITEGIC>MOL_PROPERTY
Coulomb
SciTegic.value.DoubleValue
46.487

@<SCITEGIC>MOL_PROPERTY
VdW
SciTegic.value.DoubleValue
0.717

@<SCITEGIC>MOL_PROPERTY
VdW6
SciTegic.value.DoubleValue
-8.767

@<SCITEGIC>MOL_PROPERTY
VdW12
SciTegic.value.DoubleValue
9.484

@<SCITEGIC>MOL_PROPERTY
Bond
SciTegic.value.DoubleValue
0.277

@<SCITEGIC>MOL_PROPERTY
Angle
SciTegic.value.DoubleValue
1.731

@<SCITEGIC>MOL_PROPERTY
Pdih
SciTegic.value.DoubleValue
2.847

@<SCITEGIC>MOL_PROPERTY
Idih
SciTegic.value.DoubleValue
0.000

@<SCITEGIC>MOL_PROPERTY
Tether
SciTegic.value.DoubleValue
0.000

@<TRIPOS>MOLECULE
guest-s14_vm2.mol2 : vm2 ligand conformer 151
          26          25           1
SMALL
USER_CHARGES
 
@<TRIPOS>ATOM
       1    C1      18.956057   18.667005   20.012537 C.3        1 MOL1        -0.2400
       2    H1      19.694133   18.424382   19.236911 H          1 MOL1         0.0971
       3    H2      18.065026   18.051290   19.833709 H          1 MOL1         0.0971
       4    H3      18.667904   19.719579   19.893078 H          1 MOL1         0.0971
       5    C2      19.525557   18.404963   21.422845 C.3        1 MOL1        -0.1385
       6    H4      19.774175   17.338956   21.519986 H          1 MOL1         0.0960
       7    H5      18.746180   18.615019   22.163810 H          1 MOL1         0.0960
       8    C3      20.786277   19.260371   21.695156 C.3        1 MOL1        -0.1409
       9    H6      21.524312   19.033928   20.913180 H          1 MOL1         0.0960
      10    H7      20.552951   20.328749   21.589816 H          1 MOL1         0.0960
      11    C4      21.445001   18.991015   23.073721 C.3        1 MOL1        -0.1409
      12    H8      22.529534   19.123559   22.956911 H          1 MOL1         0.0960
      13    H9      21.311748   17.940577   23.364634 H          1 MOL1         0.0960
      14    C5      20.988993   19.942073   24.213189 C.3        1 MOL1        -0.1409
      15    H10     21.616098   19.756309   25.095449 H          1 MOL1         0.0960
      16    H11     21.199279   20.979333   23.918258 H          1 MOL1         0.0960
      17    C6      19.499051   19.833566   24.624737 C.3        1 MOL1        -0.1450
      18    H12     18.863012   20.178572   23.800435 H          1 MOL1         0.0960
      19    H13     19.305633   20.523926   25.456406 H          1 MOL1         0.0960
      20    C7      19.068663   18.413136   25.043445 C.3        1 MOL1         0.0172
      21    H14     18.001246   18.411483   25.280267 H          1 MOL1         0.0934
      22    H15     19.235349   17.717761   24.216923 H          1 MOL1         0.0934
      23    N1      19.811401   17.886870   26.255371 N.4        1 MOL1        -0.5956
      24    H16     19.669566   18.483556   27.076749 H          1 MOL1         0.3624
      25    H17     20.820922   17.838064   26.086933 H          1 MOL1         0.3624
      26    H18     19.501897   16.943468   26.512774 H          1 MOL1         0.3624
@<TRIPOS>BOND
    1     1     2    1
    2     1     3    1
    3     1     4    1
    4     1     5    1
    5     5     6    1
    6     5     7    1
    7     5     8    1
    8     8     9    1
    9     8    10    1
   10     8    11    1
   11    11    12    1
   12    11    13    1
   13    11    14    1
   14    14    15    1
   15    14    16    1
   16    14    17    1
   17    17    18    1
   18    17    19    1
   19    17    20    1
   20    20    21    1
   21    20    22    1
   22    20    23    1
   23    23    24    1
   24    23    25    1
   25    23    26    1
@<TRIPOS>SUBSTRUCTURE
       1 MOL1            1 RESIDUE      1      MOL     
@<SCITEGIC>MOL_PROPERTY
VM2 Rank
SciTegic.value.IntegerValue
151

@<SCITEGIC>MOL_PROPERTY
Conf_Id
SciTegic.value.IntegerValue
257

@<SCITEGIC>MOL_PROPERTY
Probability
SciTegic.value.DoubleValue
0.01

@<SCITEGIC>MOL_PROPERTY
Sum Probability
SciTegic.value.DoubleValue
99.91

@<SCITEGIC>MOL_PROPERTY
Delta G
SciTegic.value.DoubleValue
4.278

@<SCITEGIC>MOL_PROPERTY
G
SciTegic.value.DoubleValue
52.540

@<SCITEGIC>MOL_PROPERTY
E
SciTegic.value.DoubleValue
19.310

@<SCITEGIC>MOL_PROPERTY
-TS
SciTegic.value.DoubleValue
33.230

@<SCITEGIC>MOL_PROPERTY
U+W
SciTegic.value.DoubleValue
-2.152

@<SCITEGIC>MOL_PROPERTY
U
SciTegic.value.DoubleValue
52.069

@<SCITEGIC>MOL_PROPERTY
W
SciTegic.value.DoubleValue
-54.220

@<SCITEGIC>MOL_PROPERTY
W(PB)
SciTegic.value.DoubleValue
-56.446

@<SCITEGIC>MOL_PROPERTY
W(SA)
SciTegic.value.DoubleValue
2.225

@<SCITEGIC>MOL_PROPERTY
Valence
SciTegic.value.DoubleValue
5.586

@<SCITEGIC>MOL_PROPERTY
Coulomb
SciTegic.value.DoubleValue
46.106

@<SCITEGIC>MOL_PROPERTY
VdW
SciTegic.value.DoubleValue
0.377

@<SCITEGIC>MOL_PROPERTY
VdW6
SciTegic.value.DoubleValue
-9.204

@<SCITEGIC>MOL_PROPERTY
VdW12
SciTegic.value.DoubleValue
9.580

@<SCITEGIC>MOL_PROPERTY
Bond
SciTegic.value.DoubleValue
0.269

@<SCITEGIC>MOL_PROPERTY
Angle
SciTegic.value.DoubleValue
1.680

@<SCITEGIC>MOL_PROPERTY
Pdih
SciTegic.value.DoubleValue
3.637

@<SCITEGIC>MOL_PROPERTY
Idih
SciTegic.value.DoubleValue
0.000

@<SCITEGIC>MOL_PROPERTY
Tether
SciTegic.value.DoubleValue
0.000

@<TRIPOS>MOLECULE
guest-s14_vm2.mol2 : vm2 ligand conformer 152
          26          25           1
SMALL
USER_CHARGES
 
@<TRIPOS>ATOM
       1    C1      19.642951   20.059420   20.280495 C.3        1 MOL1        -0.2400
       2    H1      18.688634   19.525199   20.366013 H          1 MOL1         0.0971
       3    H2      19.574497   20.983021   20.869793 H          1 MOL1         0.0971
       4    H3      19.769658   20.341786   19.227348 H          1 MOL1         0.0971
       5    C2      20.827155   19.185497   20.752324 C.3        1 MOL1        -0.1385
       6    H4      21.765764   19.715272   20.537502 H          1 MOL1         0.0960
       7    H5      20.857864   18.256355   20.166240 H          1 MOL1         0.0960
       8    C3      20.779176   18.852131   22.262883 C.3        1 MOL1        -0.1409
       9    H6      21.706713   18.327802   22.530202 H          1 MOL1         0.0960
      10    H7      20.777408   19.789188   22.830228 H          1 MOL1         0.0960
      11    C4      19.566708   17.968737   22.655536 C.3        1 MOL1        -0.1409
      12    H8      19.558749   17.090886   21.994788 H          1 MOL1         0.0960
      13    H9      18.623758   18.498697   22.467920 H          1 MOL1         0.0960
      14    C5      19.598078   17.464793   24.122468 C.3        1 MOL1        -0.1409
      15    H10     19.046321   16.515345   24.161616 H          1 MOL1         0.0960
      16    H11     20.625065   17.215923   24.420937 H          1 MOL1         0.0960
      17    C6      18.941778   18.418721   25.156147 C.3        1 MOL1        -0.1450
      18    H12     18.907789   17.915654   26.131633 H          1 MOL1         0.0960
      19    H13     17.895970   18.595124   24.871738 H          1 MOL1         0.0960
      20    C7      19.640858   19.780400   25.330738 C.3        1 MOL1         0.0172
      21    H14     19.613419   20.334582   24.390081 H          1 MOL1         0.0934
      22    H15     19.104528   20.367569   26.081104 H          1 MOL1         0.0934
      23    N1      21.084295   19.669301   25.780408 N.4        1 MOL1        -0.5956
      24    H16     21.521365   20.590579   25.891526 H          1 MOL1         0.3624
      25    H17     21.648834   19.143909   25.106094 H          1 MOL1         0.3624
      26    H18     21.164121   19.189049   26.682598 H          1 MOL1         0.3624
@<TRIPOS>BOND
    1     1     2    1
    2     1     3    1
    3     1     4    1
    4     1     5    1
    5     5     6    1
    6     5     7    1
    7     5     8    1
    8     8     9    1
    9     8    10    1
   10     8    11    1
   11    11    12    1
   12    11    13    1
   13    11    14    1
   14    14    15    1
   15    14    16    1
   16    14    17    1
   17    17    18    1
   18    17    19    1
   19    17    20    1
   20    20    21    1
   21    20    22    1
   22    20    23    1
   23    23    24    1
   24    23    25    1
   25    23    26    1
@<TRIPOS>SUBSTRUCTURE
       1 MOL1            1 RESIDUE      1      MOL     
@<SCITEGIC>MOL_PROPERTY
VM2 Rank
SciTegic.value.IntegerValue
152

@<SCITEGIC>MOL_PROPERTY
Conf_Id
SciTegic.value.IntegerValue
526

@<SCITEGIC>MOL_PROPERTY
Probability
SciTegic.value.DoubleValue
0.01

@<SCITEGIC>MOL_PROPERTY
Sum Probability
SciTegic.value.DoubleValue
99.92

@<SCITEGIC>MOL_PROPERTY
Delta G
SciTegic.value.DoubleValue
4.286

@<SCITEGIC>MOL_PROPERTY
G
SciTegic.value.DoubleValue
52.547

@<SCITEGIC>MOL_PROPERTY
E
SciTegic.value.DoubleValue
19.597

@<SCITEGIC>MOL_PROPERTY
-TS
SciTegic.value.DoubleValue
32.950

@<SCITEGIC>MOL_PROPERTY
U+W
SciTegic.value.DoubleValue
-1.864

@<SCITEGIC>MOL_PROPERTY
U
SciTegic.value.DoubleValue
52.362

@<SCITEGIC>MOL_PROPERTY
W
SciTegic.value.DoubleValue
-54.226

@<SCITEGIC>MOL_PROPERTY
W(PB)
SciTegic.value.DoubleValue
-56.458

@<SCITEGIC>MOL_PROPERTY
W(SA)
SciTegic.value.DoubleValue
2.231

@<SCITEGIC>MOL_PROPERTY
Valence
SciTegic.value.DoubleValue
5.334

@<SCITEGIC>MOL_PROPERTY
Coulomb
SciTegic.value.DoubleValue
46.481

@<SCITEGIC>MOL_PROPERTY
VdW
SciTegic.value.DoubleValue
0.546

@<SCITEGIC>MOL_PROPERTY
VdW6
SciTegic.value.DoubleValue
-8.933

@<SCITEGIC>MOL_PROPERTY
VdW12
SciTegic.value.DoubleValue
9.479

@<SCITEGIC>MOL_PROPERTY
Bond
SciTegic.value.DoubleValue
0.278

@<SCITEGIC>MOL_PROPERTY
Angle
SciTegic.value.DoubleValue
1.662

@<SCITEGIC>MOL_PROPERTY
Pdih
SciTegic.value.DoubleValue
3.395

@<SCITEGIC>MOL_PROPERTY
Idih
SciTegic.value.DoubleValue
0.000

@<SCITEGIC>MOL_PROPERTY
Tether
SciTegic.value.DoubleValue
0.000

@<TRIPOS>MOLECULE
guest-s14_vm2.mol2 : vm2 ligand conformer 153
          26          25           1
SMALL
USER_CHARGES
 
@<TRIPOS>ATOM
       1    C1      20.888844   20.010887   20.487304 C.3        1 MOL1        -0.2400
       2    H1      20.157906   20.290474   19.717501 H          1 MOL1         0.0971
       3    H2      20.740560   20.671411   21.348420 H          1 MOL1         0.0971
       4    H3      21.889787   20.211242   20.083738 H          1 MOL1         0.0971
       5    C2      20.747606   18.517978   20.865545 C.3        1 MOL1        -0.1385
       6    H4      21.525924   18.230900   21.586070 H          1 MOL1         0.0960
       7    H5      20.937942   17.921543   19.962247 H          1 MOL1         0.0960
       8    C3      19.344123   18.149739   21.412183 C.3        1 MOL1        -0.1409
       9    H6      18.579313   18.800694   20.966696 H          1 MOL1         0.0960
      10    H7      19.101558   17.133540   21.071744 H          1 MOL1         0.0960
      11    C4      19.223028   18.163458   22.957839 C.3        1 MOL1        -0.1409
      12    H8      19.926721   17.433094   23.379059 H          1 MOL1         0.0960
      13    H9      18.217798   17.810472   23.226405 H          1 MOL1         0.0960
      14    C5      19.456473   19.551383   23.602690 C.3        1 MOL1        -0.1409
      15    H10     20.501956   19.854710   23.467344 H          1 MOL1         0.0960
      16    H11     18.843442   20.299876   23.082164 H          1 MOL1         0.0960
      17    C6      19.104022   19.585525   25.110889 C.3        1 MOL1        -0.1450
      18    H12     18.034091   19.373283   25.237547 H          1 MOL1         0.0960
      19    H13     19.262311   20.600676   25.498432 H          1 MOL1         0.0960
      20    C7      19.910746   18.586494   25.964979 C.3        1 MOL1         0.0172
      21    H14     19.580712   18.649169   27.005477 H          1 MOL1         0.0934
      22    H15     19.729362   17.567952   25.612235 H          1 MOL1         0.0934
      23    N1      21.406159   18.833537   25.939572 N.4        1 MOL1        -0.5956
      24    H16     21.913846   18.158004   26.521042 H          1 MOL1         0.3624
      25    H17     21.643007   19.767633   26.289262 H          1 MOL1         0.3624
      26    H18     21.784582   18.759434   24.990283 H          1 MOL1         0.3624
@<TRIPOS>BOND
    1     1     2    1
    2     1     3    1
    3     1     4    1
    4     1     5    1
    5     5     6    1
    6     5     7    1
    7     5     8    1
    8     8     9    1
    9     8    10    1
   10     8    11    1
   11    11    12    1
   12    11    13    1
   13    11    14    1
   14    14    15    1
   15    14    16    1
   16    14    17    1
   17    17    18    1
   18    17    19    1
   19    17    20    1
   20    20    21    1
   21    20    22    1
   22    20    23    1
   23    23    24    1
   24    23    25    1
   25    23    26    1
@<TRIPOS>SUBSTRUCTURE
       1 MOL1            1 RESIDUE      1      MOL     
@<SCITEGIC>MOL_PROPERTY
VM2 Rank
SciTegic.value.IntegerValue
153

@<SCITEGIC>MOL_PROPERTY
Conf_Id
SciTegic.value.IntegerValue
237

@<SCITEGIC>MOL_PROPERTY
Probability
SciTegic.value.DoubleValue
0.01

@<SCITEGIC>MOL_PROPERTY
Sum Probability
SciTegic.value.DoubleValue
99.92

@<SCITEGIC>MOL_PROPERTY
Delta G
SciTegic.value.DoubleValue
4.340

@<SCITEGIC>MOL_PROPERTY
G
SciTegic.value.DoubleValue
52.602

@<SCITEGIC>MOL_PROPERTY
E
SciTegic.value.DoubleValue
19.625

@<SCITEGIC>MOL_PROPERTY
-TS
SciTegic.value.DoubleValue
32.977

@<SCITEGIC>MOL_PROPERTY
U+W
SciTegic.value.DoubleValue
-1.837

@<SCITEGIC>MOL_PROPERTY
U
SciTegic.value.DoubleValue
52.217

@<SCITEGIC>MOL_PROPERTY
W
SciTegic.value.DoubleValue
-54.054

@<SCITEGIC>MOL_PROPERTY
W(PB)
SciTegic.value.DoubleValue
-56.277

@<SCITEGIC>MOL_PROPERTY
W(SA)
SciTegic.value.DoubleValue
2.223

@<SCITEGIC>MOL_PROPERTY
Valence
SciTegic.value.DoubleValue
5.510

@<SCITEGIC>MOL_PROPERTY
Coulomb
SciTegic.value.DoubleValue
45.996

@<SCITEGIC>MOL_PROPERTY
VdW
SciTegic.value.DoubleValue
0.712

@<SCITEGIC>MOL_PROPERTY
VdW6
SciTegic.value.DoubleValue
-8.694

@<SCITEGIC>MOL_PROPERTY
VdW12
SciTegic.value.DoubleValue
9.406

@<SCITEGIC>MOL_PROPERTY
Bond
SciTegic.value.DoubleValue
0.259

@<SCITEGIC>MOL_PROPERTY
Angle
SciTegic.value.DoubleValue
1.386

@<SCITEGIC>MOL_PROPERTY
Pdih
SciTegic.value.DoubleValue
3.865

@<SCITEGIC>MOL_PROPERTY
Idih
SciTegic.value.DoubleValue
0.000

@<SCITEGIC>MOL_PROPERTY
Tether
SciTegic.value.DoubleValue
0.000

@<TRIPOS>MOLECULE
guest-s14_vm2.mol2 : vm2 ligand conformer 154
          26          25           1
SMALL
USER_CHARGES
 
@<TRIPOS>ATOM
       1    C1      19.835028   20.216218   20.294321 C.3        1 MOL1        -0.2400
       2    H1      18.772984   20.341547   20.046516 H          1 MOL1         0.0971
       3    H2      20.042041   20.804046   21.195337 H          1 MOL1         0.0971
       4    H3      20.421420   20.648224   19.473094 H          1 MOL1         0.0971
       5    C2      20.184845   18.721283   20.480686 C.3        1 MOL1        -0.1385
       6    H4      21.263390   18.599356   20.652294 H          1 MOL1         0.0960
       7    H5      19.969195   18.203056   19.535783 H          1 MOL1         0.0960
       8    C3      19.377464   18.038067   21.614434 C.3        1 MOL1        -0.1409
       9    H6      18.401694   18.528449   21.734830 H          1 MOL1         0.0960
      10    H7      19.153651   17.008783   21.301551 H          1 MOL1         0.0960
      11    C4      20.107257   17.960934   22.980466 C.3        1 MOL1        -0.1409
      12    H8      21.029349   17.374256   22.867922 H          1 MOL1         0.0960
      13    H9      19.467775   17.395196   23.670358 H          1 MOL1         0.0960
      14    C5      20.448085   19.338793   23.599732 C.3        1 MOL1        -0.1409
      15    H10     21.160277   19.860471   22.947807 H          1 MOL1         0.0960
      16    H11     19.546235   19.963845   23.639347 H          1 MOL1         0.0960
      17    C6      21.083128   19.235550   25.009555 C.3        1 MOL1        -0.1450
      18    H12     21.360340   20.240255   25.355262 H          1 MOL1         0.0960
      19    H13     22.019624   18.665887   24.943890 H          1 MOL1         0.0960
      20    C7      20.174472   18.574812   26.066354 C.3        1 MOL1         0.0172
      21    H14     19.935940   17.552197   25.763494 H          1 MOL1         0.0934
      22    H15     20.703702   18.529783   27.022063 H          1 MOL1         0.0934
      23    N1      18.870721   19.313342   26.295453 N.4        1 MOL1        -0.5956
      24    H16     19.029172   20.275918   26.610429 H          1 MOL1         0.3624
      25    H17     18.293380   18.855266   27.008899 H          1 MOL1         0.3624
      26    H18     18.309824   19.362263   25.439283 H          1 MOL1         0.3624
@<TRIPOS>BOND
    1     1     2    1
    2     1     3    1
    3     1     4    1
    4     1     5    1
    5     5     6    1
    6     5     7    1
    7     5     8    1
    8     8     9    1
    9     8    10    1
   10     8    11    1
   11    11    12    1
   12    11    13    1
   13    11    14    1
   14    14    15    1
   15    14    16    1
   16    14    17    1
   17    17    18    1
   18    17    19    1
   19    17    20    1
   20    20    21    1
   21    20    22    1
   22    20    23    1
   23    23    24    1
   24    23    25    1
   25    23    26    1
@<TRIPOS>SUBSTRUCTURE
       1 MOL1            1 RESIDUE      1      MOL     
@<SCITEGIC>MOL_PROPERTY
VM2 Rank
SciTegic.value.IntegerValue
154

@<SCITEGIC>MOL_PROPERTY
Conf_Id
SciTegic.value.IntegerValue
861

@<SCITEGIC>MOL_PROPERTY
Probability
SciTegic.value.DoubleValue
0.01

@<SCITEGIC>MOL_PROPERTY
Sum Probability
SciTegic.value.DoubleValue
99.93

@<SCITEGIC>MOL_PROPERTY
Delta G
SciTegic.value.DoubleValue
4.365

@<SCITEGIC>MOL_PROPERTY
G
SciTegic.value.DoubleValue
52.626

@<SCITEGIC>MOL_PROPERTY
E
SciTegic.value.DoubleValue
19.662

@<SCITEGIC>MOL_PROPERTY
-TS
SciTegic.value.DoubleValue
32.965

@<SCITEGIC>MOL_PROPERTY
U+W
SciTegic.value.DoubleValue
-1.800

@<SCITEGIC>MOL_PROPERTY
U
SciTegic.value.DoubleValue
52.090

@<SCITEGIC>MOL_PROPERTY
W
SciTegic.value.DoubleValue
-53.890

@<SCITEGIC>MOL_PROPERTY
W(PB)
SciTegic.value.DoubleValue
-56.114

@<SCITEGIC>MOL_PROPERTY
W(SA)
SciTegic.value.DoubleValue
2.224

@<SCITEGIC>MOL_PROPERTY
Valence
SciTegic.value.DoubleValue
5.620

@<SCITEGIC>MOL_PROPERTY
Coulomb
SciTegic.value.DoubleValue
45.628

@<SCITEGIC>MOL_PROPERTY
VdW
SciTegic.value.DoubleValue
0.841

@<SCITEGIC>MOL_PROPERTY
VdW6
SciTegic.value.DoubleValue
-8.591

@<SCITEGIC>MOL_PROPERTY
VdW12
SciTegic.value.DoubleValue
9.432

@<SCITEGIC>MOL_PROPERTY
Bond
SciTegic.value.DoubleValue
0.266

@<SCITEGIC>MOL_PROPERTY
Angle
SciTegic.value.DoubleValue
1.473

@<SCITEGIC>MOL_PROPERTY
Pdih
SciTegic.value.DoubleValue
3.881

@<SCITEGIC>MOL_PROPERTY
Idih
SciTegic.value.DoubleValue
0.000

@<SCITEGIC>MOL_PROPERTY
Tether
SciTegic.value.DoubleValue
0.000

@<TRIPOS>MOLECULE
guest-s14_vm2.mol2 : vm2 ligand conformer 155
          26          25           1
SMALL
USER_CHARGES
 
@<TRIPOS>ATOM
       1    C1      19.031589   19.685863   20.267507 C.3        1 MOL1        -0.2400
       2    H1      18.368464   19.699177   21.139466 H          1 MOL1         0.0971
       3    H2      19.344056   20.718660   20.065654 H          1 MOL1         0.0971
       4    H3      18.443049   19.342216   19.407028 H          1 MOL1         0.0971
       5    C2      20.259522   18.770653   20.483151 C.3        1 MOL1        -0.1385
       6    H4      20.864121   18.794011   19.565644 H          1 MOL1         0.0960
       7    H5      19.941000   17.726374   20.608035 H          1 MOL1         0.0960
       8    C3      21.150947   19.208914   21.673665 C.3        1 MOL1        -0.1409
       9    H6      22.198962   19.019300   21.403249 H          1 MOL1         0.0960
      10    H7      21.077079   20.294715   21.824246 H          1 MOL1         0.0960
      11    C4      20.872375   18.465986   23.005975 C.3        1 MOL1        -0.1409
      12    H8      21.610709   18.809816   23.741904 H          1 MOL1         0.0960
      13    H9      21.055387   17.391385   22.868677 H          1 MOL1         0.0960
      14    C5      19.443978   18.675784   23.566168 C.3        1 MOL1        -0.1409
      15    H10     19.221148   19.749120   23.628502 H          1 MOL1         0.0960
      16    H11     18.715881   18.246612   22.866126 H          1 MOL1         0.0960
      17    C6      19.224511   18.008334   24.947430 C.3        1 MOL1        -0.1450
      18    H12     19.384219   16.925767   24.855809 H          1 MOL1         0.0960
      19    H13     18.176603   18.138084   25.248838 H          1 MOL1         0.0960
      20    C7      20.138425   18.551036   26.065146 C.3        1 MOL1         0.0172
      21    H14     19.928136   18.017578   26.996110 H          1 MOL1         0.0934
      22    H15     21.185654   18.377509   25.805215 H          1 MOL1         0.0934
      23    N1      19.959651   20.032431   26.331958 N.4        1 MOL1        -0.5956
      24    H16     18.998369   20.255580   26.609465 H          1 MOL1         0.3624
      25    H17     20.174231   20.593473   25.501771 H          1 MOL1         0.3624
      26    H18     20.573461   20.360895   27.085290 H          1 MOL1         0.3624
@<TRIPOS>BOND
    1     1     2    1
    2     1     3    1
    3     1     4    1
    4     1     5    1
    5     5     6    1
    6     5     7    1
    7     5     8    1
    8     8     9    1
    9     8    10    1
   10     8    11    1
   11    11    12    1
   12    11    13    1
   13    11    14    1
   14    14    15    1
   15    14    16    1
   16    14    17    1
   17    17    18    1
   18    17    19    1
   19    17    20    1
   20    20    21    1
   21    20    22    1
   22    20    23    1
   23    23    24    1
   24    23    25    1
   25    23    26    1
@<TRIPOS>SUBSTRUCTURE
       1 MOL1            1 RESIDUE      1      MOL     
@<SCITEGIC>MOL_PROPERTY
VM2 Rank
SciTegic.value.IntegerValue
155

@<SCITEGIC>MOL_PROPERTY
Conf_Id
SciTegic.value.IntegerValue
1080

@<SCITEGIC>MOL_PROPERTY
Probability
SciTegic.value.DoubleValue
0.01

@<SCITEGIC>MOL_PROPERTY
Sum Probability
SciTegic.value.DoubleValue
99.93

@<SCITEGIC>MOL_PROPERTY
Delta G
SciTegic.value.DoubleValue
4.374

@<SCITEGIC>MOL_PROPERTY
G
SciTegic.value.DoubleValue
52.635

@<SCITEGIC>MOL_PROPERTY
E
SciTegic.value.DoubleValue
19.671

@<SCITEGIC>MOL_PROPERTY
-TS
SciTegic.value.DoubleValue
32.964

@<SCITEGIC>MOL_PROPERTY
U+W
SciTegic.value.DoubleValue
-1.791

@<SCITEGIC>MOL_PROPERTY
U
SciTegic.value.DoubleValue
52.090

@<SCITEGIC>MOL_PROPERTY
W
SciTegic.value.DoubleValue
-53.881

@<SCITEGIC>MOL_PROPERTY
W(PB)
SciTegic.value.DoubleValue
-56.145

@<SCITEGIC>MOL_PROPERTY
W(SA)
SciTegic.value.DoubleValue
2.264

@<SCITEGIC>MOL_PROPERTY
Valence
SciTegic.value.DoubleValue
5.620

@<SCITEGIC>MOL_PROPERTY
Coulomb
SciTegic.value.DoubleValue
45.628

@<SCITEGIC>MOL_PROPERTY
VdW
SciTegic.value.DoubleValue
0.841

@<SCITEGIC>MOL_PROPERTY
VdW6
SciTegic.value.DoubleValue
-8.590

@<SCITEGIC>MOL_PROPERTY
VdW12
SciTegic.value.DoubleValue
9.432

@<SCITEGIC>MOL_PROPERTY
Bond
SciTegic.value.DoubleValue
0.266

@<SCITEGIC>MOL_PROPERTY
Angle
SciTegic.value.DoubleValue
1.473

@<SCITEGIC>MOL_PROPERTY
Pdih
SciTegic.value.DoubleValue
3.881

@<SCITEGIC>MOL_PROPERTY
Idih
SciTegic.value.DoubleValue
0.000

@<SCITEGIC>MOL_PROPERTY
Tether
SciTegic.value.DoubleValue
0.000

@<TRIPOS>MOLECULE
guest-s14_vm2.mol2 : vm2 ligand conformer 156
          26          25           1
SMALL
USER_CHARGES
 
@<TRIPOS>ATOM
       1    C1      21.100898   19.719015   19.973678 C.3        1 MOL1        -0.2400
       2    H1      21.690836   19.312337   19.142038 H          1 MOL1         0.0971
       3    H2      20.254730   20.273290   19.547036 H          1 MOL1         0.0971
       4    H3      21.734453   20.429702   20.520235 H          1 MOL1         0.0971
       5    C2      20.611089   18.585607   20.899623 C.3        1 MOL1        -0.1385
       6    H4      21.477489   18.029133   21.283445 H          1 MOL1         0.0960
       7    H5      20.010250   17.873317   20.316867 H          1 MOL1         0.0960
       8    C3      19.774929   19.131522   22.078063 C.3        1 MOL1        -0.1409
       9    H6      20.376680   19.856682   22.639655 H          1 MOL1         0.0960
      10    H7      18.906615   19.679483   21.686793 H          1 MOL1         0.0960
      11    C4      19.287544   17.996461   23.010691 C.3        1 MOL1        -0.1409
      12    H8      20.140345   17.427220   23.400364 H          1 MOL1         0.0960
      13    H9      18.703165   17.280269   22.416477 H          1 MOL1         0.0960
      14    C5      18.398300   18.491618   24.179596 C.3        1 MOL1        -0.1409
      15    H10     17.490158   18.947361   23.761458 H          1 MOL1         0.0960
      16    H11     18.056191   17.618947   24.752978 H          1 MOL1         0.0960
      17    C6      19.052892   19.503965   25.157723 C.3        1 MOL1        -0.1450
      18    H12     18.297751   19.779088   25.905938 H          1 MOL1         0.0960
      19    H13     19.310241   20.438006   24.642392 H          1 MOL1         0.0960
      20    C7      20.280632   18.955910   25.914556 C.3        1 MOL1         0.0172
      21    H14     20.432679   19.544236   26.823515 H          1 MOL1         0.0934
      22    H15     20.100178   17.918476   26.208500 H          1 MOL1         0.0934
      23    N1      21.574716   19.014903   25.127071 N.4        1 MOL1        -0.5956
      24    H16     21.836109   19.979981   24.900903 H          1 MOL1         0.3624
      25    H17     21.500091   18.504738   24.242015 H          1 MOL1         0.3624
      26    H18     22.357433   18.608023   25.650826 H          1 MOL1         0.3624
@<TRIPOS>BOND
    1     1     2    1
    2     1     3    1
    3     1     4    1
    4     1     5    1
    5     5     6    1
    6     5     7    1
    7     5     8    1
    8     8     9    1
    9     8    10    1
   10     8    11    1
   11    11    12    1
   12    11    13    1
   13    11    14    1
   14    14    15    1
   15    14    16    1
   16    14    17    1
   17    17    18    1
   18    17    19    1
   19    17    20    1
   20    20    21    1
   21    20    22    1
   22    20    23    1
   23    23    24    1
   24    23    25    1
   25    23    26    1
@<TRIPOS>SUBSTRUCTURE
       1 MOL1            1 RESIDUE      1      MOL     
@<SCITEGIC>MOL_PROPERTY
VM2 Rank
SciTegic.value.IntegerValue
156

@<SCITEGIC>MOL_PROPERTY
Conf_Id
SciTegic.value.IntegerValue
1335

@<SCITEGIC>MOL_PROPERTY
Probability
SciTegic.value.DoubleValue
0.00

@<SCITEGIC>MOL_PROPERTY
Sum Probability
SciTegic.value.DoubleValue
99.94

@<SCITEGIC>MOL_PROPERTY
Delta G
SciTegic.value.DoubleValue
4.444

@<SCITEGIC>MOL_PROPERTY
G
SciTegic.value.DoubleValue
52.705

@<SCITEGIC>MOL_PROPERTY
E
SciTegic.value.DoubleValue
19.590

@<SCITEGIC>MOL_PROPERTY
-TS
SciTegic.value.DoubleValue
33.115

@<SCITEGIC>MOL_PROPERTY
U+W
SciTegic.value.DoubleValue
-1.872

@<SCITEGIC>MOL_PROPERTY
U
SciTegic.value.DoubleValue
51.717

@<SCITEGIC>MOL_PROPERTY
W
SciTegic.value.DoubleValue
-53.589

@<SCITEGIC>MOL_PROPERTY
W(PB)
SciTegic.value.DoubleValue
-55.826

@<SCITEGIC>MOL_PROPERTY
W(SA)
SciTegic.value.DoubleValue
2.237

@<SCITEGIC>MOL_PROPERTY
Valence
SciTegic.value.DoubleValue
4.226

@<SCITEGIC>MOL_PROPERTY
Coulomb
SciTegic.value.DoubleValue
47.188

@<SCITEGIC>MOL_PROPERTY
VdW
SciTegic.value.DoubleValue
0.304

@<SCITEGIC>MOL_PROPERTY
VdW6
SciTegic.value.DoubleValue
-8.652

@<SCITEGIC>MOL_PROPERTY
VdW12
SciTegic.value.DoubleValue
8.956

@<SCITEGIC>MOL_PROPERTY
Bond
SciTegic.value.DoubleValue
0.232

@<SCITEGIC>MOL_PROPERTY
Angle
SciTegic.value.DoubleValue
1.463

@<SCITEGIC>MOL_PROPERTY
Pdih
SciTegic.value.DoubleValue
2.531

@<SCITEGIC>MOL_PROPERTY
Idih
SciTegic.value.DoubleValue
0.000

@<SCITEGIC>MOL_PROPERTY
Tether
SciTegic.value.DoubleValue
0.000

@<TRIPOS>MOLECULE
guest-s14_vm2.mol2 : vm2 ligand conformer 157
          26          25           1
SMALL
USER_CHARGES
 
@<TRIPOS>ATOM
       1    C1      19.930823   20.395420   20.686587 C.3        1 MOL1        -0.2400
       2    H1      19.028412   20.653952   21.255542 H          1 MOL1         0.0971
       3    H2      20.810354   20.657738   21.287252 H          1 MOL1         0.0971
       4    H3      19.950898   21.021661   19.785326 H          1 MOL1         0.0971
       5    C2      19.938881   18.899274   20.304330 C.3        1 MOL1        -0.1385
       6    H4      20.880923   18.658393   19.792234 H          1 MOL1         0.0960
       7    H5      19.139844   18.718806   19.571716 H          1 MOL1         0.0960
       8    C3      19.735372   17.935541   21.501079 C.3        1 MOL1        -0.1409
       9    H6      18.749014   18.105743   21.949741 H          1 MOL1         0.0960
      10    H7      19.703340   16.913451   21.099162 H          1 MOL1         0.0960
      11    C4      20.855183   17.994536   22.575989 C.3        1 MOL1        -0.1409
      12    H8      21.800612   18.288568   22.099812 H          1 MOL1         0.0960
      13    H9      21.027028   16.982044   22.966593 H          1 MOL1         0.0960
      14    C5      20.564942   18.936343   23.773781 C.3        1 MOL1        -0.1409
      15    H10     21.500232   19.074005   24.332154 H          1 MOL1         0.0960
      16    H11     20.271477   19.931098   23.417784 H          1 MOL1         0.0960
      17    C6      19.479235   18.387118   24.733795 C.3        1 MOL1        -0.1450
      18    H12     19.780364   17.403679   25.118365 H          1 MOL1         0.0960
      19    H13     18.539166   18.234263   24.190155 H          1 MOL1         0.0960
      20    C7      19.197977   19.335067   25.915705 C.3        1 MOL1         0.0172
      21    H14     18.910429   20.319744   25.537386 H          1 MOL1         0.0934
      22    H15     18.366465   18.940744   26.506170 H          1 MOL1         0.0934
      23    N1      20.378586   19.515701   26.849734 N.4        1 MOL1        -0.5956
      24    H16     21.186841   19.919698   26.366670 H          1 MOL1         0.3624
      25    H17     20.682183   18.624807   27.256105 H          1 MOL1         0.3624
      26    H18     20.153219   20.140217   27.631704 H          1 MOL1         0.3624
@<TRIPOS>BOND
    1     1     2    1
    2     1     3    1
    3     1     4    1
    4     1     5    1
    5     5     6    1
    6     5     7    1
    7     5     8    1
    8     8     9    1
    9     8    10    1
   10     8    11    1
   11    11    12    1
   12    11    13    1
   13    11    14    1
   14    14    15    1
   15    14    16    1
   16    14    17    1
   17    17    18    1
   18    17    19    1
   19    17    20    1
   20    20    21    1
   21    20    22    1
   22    20    23    1
   23    23    24    1
   24    23    25    1
   25    23    26    1
@<TRIPOS>SUBSTRUCTURE
       1 MOL1            1 RESIDUE      1      MOL     
@<SCITEGIC>MOL_PROPERTY
VM2 Rank
SciTegic.value.IntegerValue
157

@<SCITEGIC>MOL_PROPERTY
Conf_Id
SciTegic.value.IntegerValue
157

@<SCITEGIC>MOL_PROPERTY
Probability
SciTegic.value.DoubleValue
0.00

@<SCITEGIC>MOL_PROPERTY
Sum Probability
SciTegic.value.DoubleValue
99.94

@<SCITEGIC>MOL_PROPERTY
Delta G
SciTegic.value.DoubleValue
4.457

@<SCITEGIC>MOL_PROPERTY
G
SciTegic.value.DoubleValue
52.718

@<SCITEGIC>MOL_PROPERTY
E
SciTegic.value.DoubleValue
19.851

@<SCITEGIC>MOL_PROPERTY
-TS
SciTegic.value.DoubleValue
32.867

@<SCITEGIC>MOL_PROPERTY
U+W
SciTegic.value.DoubleValue
-1.611

@<SCITEGIC>MOL_PROPERTY
U
SciTegic.value.DoubleValue
52.210

@<SCITEGIC>MOL_PROPERTY
W
SciTegic.value.DoubleValue
-53.821

@<SCITEGIC>MOL_PROPERTY
W(PB)
SciTegic.value.DoubleValue
-56.081

@<SCITEGIC>MOL_PROPERTY
W(SA)
SciTegic.value.DoubleValue
2.260

@<SCITEGIC>MOL_PROPERTY
Valence
SciTegic.value.DoubleValue
6.007

@<SCITEGIC>MOL_PROPERTY
Coulomb
SciTegic.value.DoubleValue
45.272

@<SCITEGIC>MOL_PROPERTY
VdW
SciTegic.value.DoubleValue
0.931

@<SCITEGIC>MOL_PROPERTY
VdW6
SciTegic.value.DoubleValue
-8.392

@<SCITEGIC>MOL_PROPERTY
VdW12
SciTegic.value.DoubleValue
9.322

@<SCITEGIC>MOL_PROPERTY
Bond
SciTegic.value.DoubleValue
0.291

@<SCITEGIC>MOL_PROPERTY
Angle
SciTegic.value.DoubleValue
1.471

@<SCITEGIC>MOL_PROPERTY
Pdih
SciTegic.value.DoubleValue
4.245

@<SCITEGIC>MOL_PROPERTY
Idih
SciTegic.value.DoubleValue
0.000

@<SCITEGIC>MOL_PROPERTY
Tether
SciTegic.value.DoubleValue
0.000

@<TRIPOS>MOLECULE
guest-s14_vm2.mol2 : vm2 ligand conformer 158
          26          25           1
SMALL
USER_CHARGES
 
@<TRIPOS>ATOM
       1    C1      19.006245   18.338391   19.904034 C.3        1 MOL1        -0.2400
       2    H1      18.849849   19.347229   19.500261 H          1 MOL1         0.0971
       3    H2      19.186300   17.661467   19.058817 H          1 MOL1         0.0971
       4    H3      18.079129   18.020537   20.398620 H          1 MOL1         0.0971
       5    C2      20.196634   18.312469   20.885971 C.3        1 MOL1        -0.1385
       6    H4      21.114032   18.600801   20.353795 H          1 MOL1         0.0960
       7    H5      20.349110   17.285478   21.246072 H          1 MOL1         0.0960
       8    C3      19.969434   19.259825   22.084634 C.3        1 MOL1        -0.1409
       9    H6      19.826013   20.285463   21.717461 H          1 MOL1         0.0960
      10    H7      19.040768   18.976482   22.595166 H          1 MOL1         0.0960
      11    C4      21.160012   19.230651   23.073259 C.3        1 MOL1        -0.1409
      12    H8      22.075082   19.502787   22.529100 H          1 MOL1         0.0960
      13    H9      21.329283   18.210868   23.440063 H          1 MOL1         0.0960
      14    C5      21.000633   20.206779   24.266591 C.3        1 MOL1        -0.1409
      15    H10     21.909842   20.158797   24.881731 H          1 MOL1         0.0960
      16    H11     20.958670   21.233459   23.877451 H          1 MOL1         0.0960
      17    C6      19.768160   19.975247   25.181723 C.3        1 MOL1        -0.1450
      18    H12     18.833226   20.123741   24.626676 H          1 MOL1         0.0960
      19    H13     19.777797   20.754114   25.955694 H          1 MOL1         0.0960
      20    C7      19.753323   18.608077   25.896660 C.3        1 MOL1         0.0172
      21    H14     20.763268   18.354929   26.230073 H          1 MOL1         0.0934
      22    H15     19.111185   18.672681   26.779235 H          1 MOL1         0.0934
      23    N1      19.226561   17.467561   25.048127 N.4        1 MOL1        -0.5956
      24    H16     18.248069   17.615710   24.780804 H          1 MOL1         0.3624
      25    H17     19.267985   16.571967   25.546836 H          1 MOL1         0.3624
      26    H18     19.765355   17.362014   24.183415 H          1 MOL1         0.3624
@<TRIPOS>BOND
    1     1     2    1
    2     1     3    1
    3     1     4    1
    4     1     5    1
    5     5     6    1
    6     5     7    1
    7     5     8    1
    8     8     9    1
    9     8    10    1
   10     8    11    1
   11    11    12    1
   12    11    13    1
   13    11    14    1
   14    14    15    1
   15    14    16    1
   16    14    17    1
   17    17    18    1
   18    17    19    1
   19    17    20    1
   20    20    21    1
   21    20    22    1
   22    20    23    1
   23    23    24    1
   24    23    25    1
   25    23    26    1
@<TRIPOS>SUBSTRUCTURE
       1 MOL1            1 RESIDUE      1      MOL     
@<SCITEGIC>MOL_PROPERTY
VM2 Rank
SciTegic.value.IntegerValue
158

@<SCITEGIC>MOL_PROPERTY
Conf_Id
SciTegic.value.IntegerValue
571

@<SCITEGIC>MOL_PROPERTY
Probability
SciTegic.value.DoubleValue
0.00

@<SCITEGIC>MOL_PROPERTY
Sum Probability
SciTegic.value.DoubleValue
99.95

@<SCITEGIC>MOL_PROPERTY
Delta G
SciTegic.value.DoubleValue
4.468

@<SCITEGIC>MOL_PROPERTY
G
SciTegic.value.DoubleValue
52.729

@<SCITEGIC>MOL_PROPERTY
E
SciTegic.value.DoubleValue
19.614

@<SCITEGIC>MOL_PROPERTY
-TS
SciTegic.value.DoubleValue
33.115

@<SCITEGIC>MOL_PROPERTY
U+W
SciTegic.value.DoubleValue
-1.848

@<SCITEGIC>MOL_PROPERTY
U
SciTegic.value.DoubleValue
51.718

@<SCITEGIC>MOL_PROPERTY
W
SciTegic.value.DoubleValue
-53.566

@<SCITEGIC>MOL_PROPERTY
W(PB)
SciTegic.value.DoubleValue
-55.820

@<SCITEGIC>MOL_PROPERTY
W(SA)
SciTegic.value.DoubleValue
2.254

@<SCITEGIC>MOL_PROPERTY
Valence
SciTegic.value.DoubleValue
4.225

@<SCITEGIC>MOL_PROPERTY
Coulomb
SciTegic.value.DoubleValue
47.188

@<SCITEGIC>MOL_PROPERTY
VdW
SciTegic.value.DoubleValue
0.304

@<SCITEGIC>MOL_PROPERTY
VdW6
SciTegic.value.DoubleValue
-8.653

@<SCITEGIC>MOL_PROPERTY
VdW12
SciTegic.value.DoubleValue
8.958

@<SCITEGIC>MOL_PROPERTY
Bond
SciTegic.value.DoubleValue
0.232

@<SCITEGIC>MOL_PROPERTY
Angle
SciTegic.value.DoubleValue
1.462

@<SCITEGIC>MOL_PROPERTY
Pdih
SciTegic.value.DoubleValue
2.532

@<SCITEGIC>MOL_PROPERTY
Idih
SciTegic.value.DoubleValue
0.000

@<SCITEGIC>MOL_PROPERTY
Tether
SciTegic.value.DoubleValue
0.000

@<TRIPOS>MOLECULE
guest-s14_vm2.mol2 : vm2 ligand conformer 159
          26          25           1
SMALL
USER_CHARGES
 
@<TRIPOS>ATOM
       1    C1      19.864590   18.987724   19.703933 C.3        1 MOL1        -0.2400
       2    H1      18.919690   19.542282   19.635897 H          1 MOL1         0.0971
       3    H2      20.682969   19.711828   19.800220 H          1 MOL1         0.0971
       4    H3      20.008529   18.452668   18.756346 H          1 MOL1         0.0971
       5    C2      19.842165   17.993922   20.887534 C.3        1 MOL1        -0.1385
       6    H4      20.809943   17.477616   20.955218 H          1 MOL1         0.0960
       7    H5      19.093344   17.216468   20.681026 H          1 MOL1         0.0960
       8    C3      19.506560   18.656646   22.245595 C.3        1 MOL1        -0.1409
       9    H6      18.532661   19.159948   22.173737 H          1 MOL1         0.0960
      10    H7      19.386777   17.860349   22.987758 H          1 MOL1         0.0960
      11    C4      20.581984   19.668640   22.718351 C.3        1 MOL1        -0.1409
      12    H8      20.639423   20.482394   21.983783 H          1 MOL1         0.0960
      13    H9      21.573505   19.195681   22.726304 H          1 MOL1         0.0960
      14    C5      20.285017   20.303764   24.102200 C.3        1 MOL1        -0.1409
      15    H10     20.722329   21.311819   24.109298 H          1 MOL1         0.0960
      16    H11     19.204942   20.454261   24.231275 H          1 MOL1         0.0960
      17    C6      20.882500   19.536690   25.311950 C.3        1 MOL1        -0.1450
      18    H12     20.730936   20.132562   26.221776 H          1 MOL1         0.0960
      19    H13     21.969931   19.452964   25.184564 H          1 MOL1         0.0960
      20    C7      20.303884   18.128083   25.544621 C.3        1 MOL1         0.0172
      21    H14     20.492528   17.500629   24.670547 H          1 MOL1         0.0934
      22    H15     20.804249   17.669355   26.401752 H          1 MOL1         0.0934
      23    N1      18.814299   18.123531   25.826816 N.4        1 MOL1        -0.5956
      24    H16     18.282184   18.527567   25.050207 H          1 MOL1         0.3624
      25    H17     18.586072   18.666923   26.665637 H          1 MOL1         0.3624
      26    H18     18.457665   17.173897   25.979031 H          1 MOL1         0.3624
@<TRIPOS>BOND
    1     1     2    1
    2     1     3    1
    3     1     4    1
    4     1     5    1
    5     5     6    1
    6     5     7    1
    7     5     8    1
    8     8     9    1
    9     8    10    1
   10     8    11    1
   11    11    12    1
   12    11    13    1
   13    11    14    1
   14    14    15    1
   15    14    16    1
   16    14    17    1
   17    17    18    1
   18    17    19    1
   19    17    20    1
   20    20    21    1
   21    20    22    1
   22    20    23    1
   23    23    24    1
   24    23    25    1
   25    23    26    1
@<TRIPOS>SUBSTRUCTURE
       1 MOL1            1 RESIDUE      1      MOL     
@<SCITEGIC>MOL_PROPERTY
VM2 Rank
SciTegic.value.IntegerValue
159

@<SCITEGIC>MOL_PROPERTY
Conf_Id
SciTegic.value.IntegerValue
216

@<SCITEGIC>MOL_PROPERTY
Probability
SciTegic.value.DoubleValue
0.00

@<SCITEGIC>MOL_PROPERTY
Sum Probability
SciTegic.value.DoubleValue
99.95

@<SCITEGIC>MOL_PROPERTY
Delta G
SciTegic.value.DoubleValue
4.485

@<SCITEGIC>MOL_PROPERTY
G
SciTegic.value.DoubleValue
52.746

@<SCITEGIC>MOL_PROPERTY
E
SciTegic.value.DoubleValue
19.756

@<SCITEGIC>MOL_PROPERTY
-TS
SciTegic.value.DoubleValue
32.990

@<SCITEGIC>MOL_PROPERTY
U+W
SciTegic.value.DoubleValue
-1.706

@<SCITEGIC>MOL_PROPERTY
U
SciTegic.value.DoubleValue
52.488

@<SCITEGIC>MOL_PROPERTY
W
SciTegic.value.DoubleValue
-54.194

@<SCITEGIC>MOL_PROPERTY
W(PB)
SciTegic.value.DoubleValue
-56.463

@<SCITEGIC>MOL_PROPERTY
W(SA)
SciTegic.value.DoubleValue
2.269

@<SCITEGIC>MOL_PROPERTY
Valence
SciTegic.value.DoubleValue
5.467

@<SCITEGIC>MOL_PROPERTY
Coulomb
SciTegic.value.DoubleValue
46.392

@<SCITEGIC>MOL_PROPERTY
VdW
SciTegic.value.DoubleValue
0.629

@<SCITEGIC>MOL_PROPERTY
VdW6
SciTegic.value.DoubleValue
-8.780

@<SCITEGIC>MOL_PROPERTY
VdW12
SciTegic.value.DoubleValue
9.409

@<SCITEGIC>MOL_PROPERTY
Bond
SciTegic.value.DoubleValue
0.279

@<SCITEGIC>MOL_PROPERTY
Angle
SciTegic.value.DoubleValue
1.627

@<SCITEGIC>MOL_PROPERTY
Pdih
SciTegic.value.DoubleValue
3.561

@<SCITEGIC>MOL_PROPERTY
Idih
SciTegic.value.DoubleValue
0.000

@<SCITEGIC>MOL_PROPERTY
Tether
SciTegic.value.DoubleValue
0.000

@<TRIPOS>MOLECULE
guest-s14_vm2.mol2 : vm2 ligand conformer 160
          26          25           1
SMALL
USER_CHARGES
 
@<TRIPOS>ATOM
       1    C1      18.583004   19.113639   20.880852 C.3        1 MOL1        -0.2400
       2    H1      18.493780   19.932050   21.602485 H          1 MOL1         0.0971
       3    H2      18.141486   19.459774   19.937391 H          1 MOL1         0.0971
       4    H3      17.978285   18.271612   21.241585 H          1 MOL1         0.0971
       5    C2      20.052902   18.687224   20.661709 C.3        1 MOL1        -0.1385
       6    H4      20.644415   19.536542   20.292697 H          1 MOL1         0.0960
       7    H5      20.067265   17.938279   19.857491 H          1 MOL1         0.0960
       8    C3      20.724294   18.067081   21.914862 C.3        1 MOL1        -0.1409
       9    H6      19.993707   17.492699   22.499268 H          1 MOL1         0.0960
      10    H7      21.458505   17.327975   21.565630 H          1 MOL1         0.0960
      11    C4      21.487918   19.073799   22.817363 C.3        1 MOL1        -0.1409
      12    H8      22.243258   19.591086   22.209992 H          1 MOL1         0.0960
      13    H9      22.057275   18.507633   23.566648 H          1 MOL1         0.0960
      14    C5      20.622204   20.137156   23.541960 C.3        1 MOL1        -0.1409
      15    H10     21.285177   20.769958   24.148030 H          1 MOL1         0.0960
      16    H11     20.173110   20.811927   22.802758 H          1 MOL1         0.0960
      17    C6      19.516697   19.558410   24.460078 C.3        1 MOL1        -0.1450
      18    H12     18.784209   18.999440   23.865064 H          1 MOL1         0.0960
      19    H13     18.969020   20.390121   24.922635 H          1 MOL1         0.0960
      20    C7      20.081433   18.649568   25.567366 C.3        1 MOL1         0.0172
      21    H14     20.595229   17.796108   25.117330 H          1 MOL1         0.0934
      22    H15     20.803106   19.208217   26.169371 H          1 MOL1         0.0934
      23    N1      19.012546   18.112124   26.496809 N.4        1 MOL1        -0.5956
      24    H16     18.315274   17.552977   25.994676 H          1 MOL1         0.3624
      25    H17     18.508087   18.865932   26.974733 H          1 MOL1         0.3624
      26    H18     19.409797   17.509886   27.226056 H          1 MOL1         0.3624
@<TRIPOS>BOND
    1     1     2    1
    2     1     3    1
    3     1     4    1
    4     1     5    1
    5     5     6    1
    6     5     7    1
    7     5     8    1
    8     8     9    1
    9     8    10    1
   10     8    11    1
   11    11    12    1
   12    11    13    1
   13    11    14    1
   14    14    15    1
   15    14    16    1
   16    14    17    1
   17    17    18    1
   18    17    19    1
   19    17    20    1
   20    20    21    1
   21    20    22    1
   22    20    23    1
   23    23    24    1
   24    23    25    1
   25    23    26    1
@<TRIPOS>SUBSTRUCTURE
       1 MOL1            1 RESIDUE      1      MOL     
@<SCITEGIC>MOL_PROPERTY
VM2 Rank
SciTegic.value.IntegerValue
160

@<SCITEGIC>MOL_PROPERTY
Conf_Id
SciTegic.value.IntegerValue
1113

@<SCITEGIC>MOL_PROPERTY
Probability
SciTegic.value.DoubleValue
0.00

@<SCITEGIC>MOL_PROPERTY
Sum Probability
SciTegic.value.DoubleValue
99.95

@<SCITEGIC>MOL_PROPERTY
Delta G
SciTegic.value.DoubleValue
4.486

@<SCITEGIC>MOL_PROPERTY
G
SciTegic.value.DoubleValue
52.747

@<SCITEGIC>MOL_PROPERTY
E
SciTegic.value.DoubleValue
19.426

@<SCITEGIC>MOL_PROPERTY
-TS
SciTegic.value.DoubleValue
33.321

@<SCITEGIC>MOL_PROPERTY
U+W
SciTegic.value.DoubleValue
-2.035

@<SCITEGIC>MOL_PROPERTY
U
SciTegic.value.DoubleValue
52.153

@<SCITEGIC>MOL_PROPERTY
W
SciTegic.value.DoubleValue
-54.188

@<SCITEGIC>MOL_PROPERTY
W(PB)
SciTegic.value.DoubleValue
-56.391

@<SCITEGIC>MOL_PROPERTY
W(SA)
SciTegic.value.DoubleValue
2.203

@<SCITEGIC>MOL_PROPERTY
Valence
SciTegic.value.DoubleValue
5.986

@<SCITEGIC>MOL_PROPERTY
Coulomb
SciTegic.value.DoubleValue
45.781

@<SCITEGIC>MOL_PROPERTY
VdW
SciTegic.value.DoubleValue
0.386

@<SCITEGIC>MOL_PROPERTY
VdW6
SciTegic.value.DoubleValue
-9.288

@<SCITEGIC>MOL_PROPERTY
VdW12
SciTegic.value.DoubleValue
9.673

@<SCITEGIC>MOL_PROPERTY
Bond
SciTegic.value.DoubleValue
0.289

@<SCITEGIC>MOL_PROPERTY
Angle
SciTegic.value.DoubleValue
2.079

@<SCITEGIC>MOL_PROPERTY
Pdih
SciTegic.value.DoubleValue
3.617

@<SCITEGIC>MOL_PROPERTY
Idih
SciTegic.value.DoubleValue
0.000

@<SCITEGIC>MOL_PROPERTY
Tether
SciTegic.value.DoubleValue
0.000

@<TRIPOS>MOLECULE
guest-s14_vm2.mol2 : vm2 ligand conformer 161
          26          25           1
SMALL
USER_CHARGES
 
@<TRIPOS>ATOM
       1    C1      18.429606   19.348794   20.648127 C.3        1 MOL1        -0.2400
       2    H1      18.892102   19.690805   19.713082 H          1 MOL1         0.0971
       3    H2      17.567589   18.721087   20.387558 H          1 MOL1         0.0971
       4    H3      18.055008   20.229177   21.186429 H          1 MOL1         0.0971
       5    C2      19.437624   18.559651   21.509739 C.3        1 MOL1        -0.1385
       6    H4      19.769730   17.668655   20.958877 H          1 MOL1         0.0960
       7    H5      18.929289   18.200764   22.412859 H          1 MOL1         0.0960
       8    C3      20.663670   19.423933   21.887262 C.3        1 MOL1        -0.1409
       9    H6      21.136864   19.784354   20.963465 H          1 MOL1         0.0960
      10    H7      20.345118   20.324878   22.426049 H          1 MOL1         0.0960
      11    C4      21.730504   18.660610   22.711514 C.3        1 MOL1        -0.1409
      12    H8      22.592602   19.323715   22.867193 H          1 MOL1         0.0960
      13    H9      22.106782   17.823065   22.108061 H          1 MOL1         0.0960
      14    C5      21.270365   18.109457   24.088548 C.3        1 MOL1        -0.1409
      15    H10     20.488880   17.350471   23.959460 H          1 MOL1         0.0960
      16    H11     22.124007   17.571628   24.523656 H          1 MOL1         0.0960
      17    C6      20.826749   19.193313   25.107431 C.3        1 MOL1        -0.1450
      18    H12     21.459609   20.083730   24.996664 H          1 MOL1         0.0960
      19    H13     21.006656   18.822474   26.125273 H          1 MOL1         0.0960
      20    C7      19.343441   19.603761   25.000693 C.3        1 MOL1         0.0172
      21    H14     19.155576   20.450610   25.666289 H          1 MOL1         0.0934
      22    H15     19.108559   19.916059   23.981473 H          1 MOL1         0.0934
      23    N1      18.379041   18.499481   25.387686 N.4        1 MOL1        -0.5956
      24    H16     17.402285   18.803553   25.312325 H          1 MOL1         0.3624
      25    H17     18.522321   18.193471   26.355606 H          1 MOL1         0.3624
      26    H18     18.485705   17.673869   24.791116 H          1 MOL1         0.3624
@<TRIPOS>BOND
    1     1     2    1
    2     1     3    1
    3     1     4    1
    4     1     5    1
    5     5     6    1
    6     5     7    1
    7     5     8    1
    8     8     9    1
    9     8    10    1
   10     8    11    1
   11    11    12    1
   12    11    13    1
   13    11    14    1
   14    14    15    1
   15    14    16    1
   16    14    17    1
   17    17    18    1
   18    17    19    1
   19    17    20    1
   20    20    21    1
   21    20    22    1
   22    20    23    1
   23    23    24    1
   24    23    25    1
   25    23    26    1
@<TRIPOS>SUBSTRUCTURE
       1 MOL1            1 RESIDUE      1      MOL     
@<SCITEGIC>MOL_PROPERTY
VM2 Rank
SciTegic.value.IntegerValue
161

@<SCITEGIC>MOL_PROPERTY
Conf_Id
SciTegic.value.IntegerValue
702

@<SCITEGIC>MOL_PROPERTY
Probability
SciTegic.value.DoubleValue
0.00

@<SCITEGIC>MOL_PROPERTY
Sum Probability
SciTegic.value.DoubleValue
99.96

@<SCITEGIC>MOL_PROPERTY
Delta G
SciTegic.value.DoubleValue
4.495

@<SCITEGIC>MOL_PROPERTY
G
SciTegic.value.DoubleValue
52.757

@<SCITEGIC>MOL_PROPERTY
E
SciTegic.value.DoubleValue
19.305

@<SCITEGIC>MOL_PROPERTY
-TS
SciTegic.value.DoubleValue
33.452

@<SCITEGIC>MOL_PROPERTY
U+W
SciTegic.value.DoubleValue
-2.157

@<SCITEGIC>MOL_PROPERTY
U
SciTegic.value.DoubleValue
52.359

@<SCITEGIC>MOL_PROPERTY
W
SciTegic.value.DoubleValue
-54.516

@<SCITEGIC>MOL_PROPERTY
W(PB)
SciTegic.value.DoubleValue
-56.739

@<SCITEGIC>MOL_PROPERTY
W(SA)
SciTegic.value.DoubleValue
2.223

@<SCITEGIC>MOL_PROPERTY
Valence
SciTegic.value.DoubleValue
5.321

@<SCITEGIC>MOL_PROPERTY
Coulomb
SciTegic.value.DoubleValue
46.894

@<SCITEGIC>MOL_PROPERTY
VdW
SciTegic.value.DoubleValue
0.144

@<SCITEGIC>MOL_PROPERTY
VdW6
SciTegic.value.DoubleValue
-9.549

@<SCITEGIC>MOL_PROPERTY
VdW12
SciTegic.value.DoubleValue
9.694

@<SCITEGIC>MOL_PROPERTY
Bond
SciTegic.value.DoubleValue
0.274

@<SCITEGIC>MOL_PROPERTY
Angle
SciTegic.value.DoubleValue
1.814

@<SCITEGIC>MOL_PROPERTY
Pdih
SciTegic.value.DoubleValue
3.233

@<SCITEGIC>MOL_PROPERTY
Idih
SciTegic.value.DoubleValue
0.000

@<SCITEGIC>MOL_PROPERTY
Tether
SciTegic.value.DoubleValue
0.000

@<TRIPOS>MOLECULE
guest-s14_vm2.mol2 : vm2 ligand conformer 162
          26          25           1
SMALL
USER_CHARGES
 
@<TRIPOS>ATOM
       1    C1      20.509430   20.384108   20.945079 C.3        1 MOL1        -0.2400
       2    H1      19.759360   20.766642   21.644776 H          1 MOL1         0.0971
       3    H2      21.503611   20.596386   21.359046 H          1 MOL1         0.0971
       4    H3      20.408679   20.955076   20.013031 H          1 MOL1         0.0971
       5    C2      20.333845   18.872654   20.670981 C.3        1 MOL1        -0.1385
       6    H4      21.053337   18.588799   19.890180 H          1 MOL1         0.0960
       7    H5      19.338536   18.675635   20.249151 H          1 MOL1         0.0960
       8    C3      20.581627   17.973005   21.909921 C.3        1 MOL1        -0.1409
       9    H6      20.988346   17.017960   21.549677 H          1 MOL1         0.0960
      10    H7      21.368990   18.399626   22.544945 H          1 MOL1         0.0960
      11    C4      19.315207   17.640845   22.744759 C.3        1 MOL1        -0.1409
      12    H8      19.576869   16.871725   23.483762 H          1 MOL1         0.0960
      13    H9      18.571658   17.169618   22.087412 H          1 MOL1         0.0960
      14    C5      18.644841   18.833014   23.475899 C.3        1 MOL1        -0.1409
      15    H10     18.235850   19.534246   22.738052 H          1 MOL1         0.0960
      16    H11     17.775057   18.455005   24.030766 H          1 MOL1         0.0960
      17    C6      19.567874   19.592001   24.461789 C.3        1 MOL1        -0.1450
      18    H12     18.997578   20.408843   24.923507 H          1 MOL1         0.0960
      19    H13     20.396707   20.062534   23.918957 H          1 MOL1         0.0960
      20    C7      20.129154   18.681000   25.569062 C.3        1 MOL1         0.0172
      21    H14     19.304533   18.219872   26.119217 H          1 MOL1         0.0934
      22    H15     20.732359   17.886455   25.122120 H          1 MOL1         0.0934
      23    N1      20.999021   19.422374   26.563510 N.4        1 MOL1        -0.5956
      24    H16     20.482360   20.168196   27.040927 H          1 MOL1         0.3624
      25    H17     21.809859   19.857839   26.111970 H          1 MOL1         0.3624
      26    H18     21.362097   18.797698   27.291695 H          1 MOL1         0.3624
@<TRIPOS>BOND
    1     1     2    1
    2     1     3    1
    3     1     4    1
    4     1     5    1
    5     5     6    1
    6     5     7    1
    7     5     8    1
    8     8     9    1
    9     8    10    1
   10     8    11    1
   11    11    12    1
   12    11    13    1
   13    11    14    1
   14    14    15    1
   15    14    16    1
   16    14    17    1
   17    17    18    1
   18    17    19    1
   19    17    20    1
   20    20    21    1
   21    20    22    1
   22    20    23    1
   23    23    24    1
   24    23    25    1
   25    23    26    1
@<TRIPOS>SUBSTRUCTURE
       1 MOL1            1 RESIDUE      1      MOL     
@<SCITEGIC>MOL_PROPERTY
VM2 Rank
SciTegic.value.IntegerValue
162

@<SCITEGIC>MOL_PROPERTY
Conf_Id
SciTegic.value.IntegerValue
1324

@<SCITEGIC>MOL_PROPERTY
Probability
SciTegic.value.DoubleValue
0.00

@<SCITEGIC>MOL_PROPERTY
Sum Probability
SciTegic.value.DoubleValue
99.96

@<SCITEGIC>MOL_PROPERTY
Delta G
SciTegic.value.DoubleValue
4.504

@<SCITEGIC>MOL_PROPERTY
G
SciTegic.value.DoubleValue
52.765

@<SCITEGIC>MOL_PROPERTY
E
SciTegic.value.DoubleValue
19.445

@<SCITEGIC>MOL_PROPERTY
-TS
SciTegic.value.DoubleValue
33.321

@<SCITEGIC>MOL_PROPERTY
U+W
SciTegic.value.DoubleValue
-2.017

@<SCITEGIC>MOL_PROPERTY
U
SciTegic.value.DoubleValue
52.152

@<SCITEGIC>MOL_PROPERTY
W
SciTegic.value.DoubleValue
-54.169

@<SCITEGIC>MOL_PROPERTY
W(PB)
SciTegic.value.DoubleValue
-56.395

@<SCITEGIC>MOL_PROPERTY
W(SA)
SciTegic.value.DoubleValue
2.226

@<SCITEGIC>MOL_PROPERTY
Valence
SciTegic.value.DoubleValue
5.986

@<SCITEGIC>MOL_PROPERTY
Coulomb
SciTegic.value.DoubleValue
45.781

@<SCITEGIC>MOL_PROPERTY
VdW
SciTegic.value.DoubleValue
0.385

@<SCITEGIC>MOL_PROPERTY
VdW6
SciTegic.value.DoubleValue
-9.287

@<SCITEGIC>MOL_PROPERTY
VdW12
SciTegic.value.DoubleValue
9.673

@<SCITEGIC>MOL_PROPERTY
Bond
SciTegic.value.DoubleValue
0.289

@<SCITEGIC>MOL_PROPERTY
Angle
SciTegic.value.DoubleValue
2.079

@<SCITEGIC>MOL_PROPERTY
Pdih
SciTegic.value.DoubleValue
3.617

@<SCITEGIC>MOL_PROPERTY
Idih
SciTegic.value.DoubleValue
0.000

@<SCITEGIC>MOL_PROPERTY
Tether
SciTegic.value.DoubleValue
0.000

@<TRIPOS>MOLECULE
guest-s14_vm2.mol2 : vm2 ligand conformer 163
          26          25           1
SMALL
USER_CHARGES
 
@<TRIPOS>ATOM
       1    C1      20.859213   18.236846   20.010736 C.3        1 MOL1        -0.2400
       2    H1      20.645621   17.282530   20.506983 H          1 MOL1         0.0971
       3    H2      20.160747   18.349727   19.171456 H          1 MOL1         0.0971
       4    H3      21.873251   18.173122   19.595305 H          1 MOL1         0.0971
       5    C2      20.749852   19.429351   20.988630 C.3        1 MOL1        -0.1385
       6    H4      21.061453   20.341583   20.460994 H          1 MOL1         0.0960
       7    H5      21.463082   19.294751   21.810762 H          1 MOL1         0.0960
       8    C3      19.313869   19.641450   21.534025 C.3        1 MOL1        -0.1409
       9    H6      19.242918   20.629277   22.009547 H          1 MOL1         0.0960
      10    H7      18.624338   19.678292   20.679353 H          1 MOL1         0.0960
      11    C4      18.823383   18.551881   22.526326 C.3        1 MOL1        -0.1409
      12    H8      19.299844   17.586448   22.315545 H          1 MOL1         0.0960
      13    H9      17.750081   18.393074   22.352970 H          1 MOL1         0.0960
      14    C5      19.004484   18.910346   24.023994 C.3        1 MOL1        -0.1409
      15    H10     18.433969   19.821040   24.253227 H          1 MOL1         0.0960
      16    H11     18.551137   18.107787   24.620421 H          1 MOL1         0.0960
      17    C6      20.477933   19.104746   24.457425 C.3        1 MOL1        -0.1450
      18    H12     20.902229   19.969056   23.931935 H          1 MOL1         0.0960
      19    H13     21.075535   18.229614   24.169794 H          1 MOL1         0.0960
      20    C7      20.625240   19.354653   25.970863 C.3        1 MOL1         0.0172
      21    H14     21.668175   19.591288   26.198536 H          1 MOL1         0.0934
      22    H15     20.009999   20.209390   26.264642 H          1 MOL1         0.0934
      23    N1      20.227026   18.169726   26.829002 N.4        1 MOL1        -0.5956
      24    H16     19.243787   17.915476   26.693361 H          1 MOL1         0.3624
      25    H17     20.351330   18.364757   27.828404 H          1 MOL1         0.3624
      26    H18     20.787547   17.338665   26.614235 H          1 MOL1         0.3624
@<TRIPOS>BOND
    1     1     2    1
    2     1     3    1
    3     1     4    1
    4     1     5    1
    5     5     6    1
    6     5     7    1
    7     5     8    1
    8     8     9    1
    9     8    10    1
   10     8    11    1
   11    11    12    1
   12    11    13    1
   13    11    14    1
   14    14    15    1
   15    14    16    1
   16    14    17    1
   17    17    18    1
   18    17    19    1
   19    17    20    1
   20    20    21    1
   21    20    22    1
   22    20    23    1
   23    23    24    1
   24    23    25    1
   25    23    26    1
@<TRIPOS>SUBSTRUCTURE
       1 MOL1            1 RESIDUE      1      MOL     
@<SCITEGIC>MOL_PROPERTY
VM2 Rank
SciTegic.value.IntegerValue
163

@<SCITEGIC>MOL_PROPERTY
Conf_Id
SciTegic.value.IntegerValue
536

@<SCITEGIC>MOL_PROPERTY
Probability
SciTegic.value.DoubleValue
0.00

@<SCITEGIC>MOL_PROPERTY
Sum Probability
SciTegic.value.DoubleValue
99.97

@<SCITEGIC>MOL_PROPERTY
Delta G
SciTegic.value.DoubleValue
4.507

@<SCITEGIC>MOL_PROPERTY
G
SciTegic.value.DoubleValue
52.769

@<SCITEGIC>MOL_PROPERTY
E
SciTegic.value.DoubleValue
19.899

@<SCITEGIC>MOL_PROPERTY
-TS
SciTegic.value.DoubleValue
32.870

@<SCITEGIC>MOL_PROPERTY
U+W
SciTegic.value.DoubleValue
-1.563

@<SCITEGIC>MOL_PROPERTY
U
SciTegic.value.DoubleValue
52.213

@<SCITEGIC>MOL_PROPERTY
W
SciTegic.value.DoubleValue
-53.776

@<SCITEGIC>MOL_PROPERTY
W(PB)
SciTegic.value.DoubleValue
-56.014

@<SCITEGIC>MOL_PROPERTY
W(SA)
SciTegic.value.DoubleValue
2.238

@<SCITEGIC>MOL_PROPERTY
Valence
SciTegic.value.DoubleValue
6.034

@<SCITEGIC>MOL_PROPERTY
Coulomb
SciTegic.value.DoubleValue
45.240

@<SCITEGIC>MOL_PROPERTY
VdW
SciTegic.value.DoubleValue
0.939

@<SCITEGIC>MOL_PROPERTY
VdW6
SciTegic.value.DoubleValue
-8.400

@<SCITEGIC>MOL_PROPERTY
VdW12
SciTegic.value.DoubleValue
9.339

@<SCITEGIC>MOL_PROPERTY
Bond
SciTegic.value.DoubleValue
0.287

@<SCITEGIC>MOL_PROPERTY
Angle
SciTegic.value.DoubleValue
1.515

@<SCITEGIC>MOL_PROPERTY
Pdih
SciTegic.value.DoubleValue
4.233

@<SCITEGIC>MOL_PROPERTY
Idih
SciTegic.value.DoubleValue
0.000

@<SCITEGIC>MOL_PROPERTY
Tether
SciTegic.value.DoubleValue
0.000

@<TRIPOS>MOLECULE
guest-s14_vm2.mol2 : vm2 ligand conformer 164
          26          25           1
SMALL
USER_CHARGES
 
@<TRIPOS>ATOM
       1    C1      18.962636   20.102115   21.087221 C.3        1 MOL1        -0.2400
       2    H1      19.566948   21.017219   21.039732 H          1 MOL1         0.0971
       3    H2      18.089190   20.246554   20.438315 H          1 MOL1         0.0971
       4    H3      18.594558   19.990711   22.112415 H          1 MOL1         0.0971
       5    C2      19.780180   18.873962   20.623974 C.3        1 MOL1        -0.1385
       6    H4      20.046288   19.026960   19.568668 H          1 MOL1         0.0960
       7    H5      19.156741   17.969459   20.649366 H          1 MOL1         0.0960
       8    C3      21.086582   18.650922   21.429575 C.3        1 MOL1        -0.1409
       9    H6      21.835317   18.232914   20.742553 H          1 MOL1         0.0960
      10    H7      21.504176   19.611263   21.758920 H          1 MOL1         0.0960
      11    C4      20.961320   17.663703   22.621793 C.3        1 MOL1        -0.1409
      12    H8      21.961163   17.501166   23.047310 H          1 MOL1         0.0960
      13    H9      20.640951   16.685783   22.236859 H          1 MOL1         0.0960
      14    C5      20.001302   18.084533   23.762182 C.3        1 MOL1        -0.1409
      15    H10     18.977069   18.167239   23.377705 H          1 MOL1         0.0960
      16    H11     19.977676   17.272014   24.500259 H          1 MOL1         0.0960
      17    C6      20.419932   19.399052   24.467673 C.3        1 MOL1        -0.1450
      18    H12     20.454501   20.219553   23.740882 H          1 MOL1         0.0960
      19    H13     21.434980   19.299487   24.874354 H          1 MOL1         0.0960
      20    C7      19.450721   19.801841   25.595668 C.3        1 MOL1         0.0172
      21    H14     19.744642   20.776393   25.994916 H          1 MOL1         0.0934
      22    H15     18.436792   19.888934   25.195998 H          1 MOL1         0.0934
      23    N1      19.418328   18.822872   26.752914 N.4        1 MOL1        -0.5956
      24    H16     18.774785   19.127419   27.491386 H          1 MOL1         0.3624
      25    H17     20.341287   18.714854   27.185852 H          1 MOL1         0.3624
      26    H18     19.112863   17.891633   26.454078 H          1 MOL1         0.3624
@<TRIPOS>BOND
    1     1     2    1
    2     1     3    1
    3     1     4    1
    4     1     5    1
    5     5     6    1
    6     5     7    1
    7     5     8    1
    8     8     9    1
    9     8    10    1
   10     8    11    1
   11    11    12    1
   12    11    13    1
   13    11    14    1
   14    14    15    1
   15    14    16    1
   16    14    17    1
   17    17    18    1
   18    17    19    1
   19    17    20    1
   20    20    21    1
   21    20    22    1
   22    20    23    1
   23    23    24    1
   24    23    25    1
   25    23    26    1
@<TRIPOS>SUBSTRUCTURE
       1 MOL1            1 RESIDUE      1      MOL     
@<SCITEGIC>MOL_PROPERTY
VM2 Rank
SciTegic.value.IntegerValue
164

@<SCITEGIC>MOL_PROPERTY
Conf_Id
SciTegic.value.IntegerValue
1093

@<SCITEGIC>MOL_PROPERTY
Probability
SciTegic.value.DoubleValue
0.00

@<SCITEGIC>MOL_PROPERTY
Sum Probability
SciTegic.value.DoubleValue
99.97

@<SCITEGIC>MOL_PROPERTY
Delta G
SciTegic.value.DoubleValue
4.512

@<SCITEGIC>MOL_PROPERTY
G
SciTegic.value.DoubleValue
52.774

@<SCITEGIC>MOL_PROPERTY
E
SciTegic.value.DoubleValue
19.499

@<SCITEGIC>MOL_PROPERTY
-TS
SciTegic.value.DoubleValue
33.275

@<SCITEGIC>MOL_PROPERTY
U+W
SciTegic.value.DoubleValue
-1.963

@<SCITEGIC>MOL_PROPERTY
U
SciTegic.value.DoubleValue
51.929

@<SCITEGIC>MOL_PROPERTY
W
SciTegic.value.DoubleValue
-53.892

@<SCITEGIC>MOL_PROPERTY
W(PB)
SciTegic.value.DoubleValue
-56.114

@<SCITEGIC>MOL_PROPERTY
W(SA)
SciTegic.value.DoubleValue
2.222

@<SCITEGIC>MOL_PROPERTY
Valence
SciTegic.value.DoubleValue
5.867

@<SCITEGIC>MOL_PROPERTY
Coulomb
SciTegic.value.DoubleValue
45.498

@<SCITEGIC>MOL_PROPERTY
VdW
SciTegic.value.DoubleValue
0.563

@<SCITEGIC>MOL_PROPERTY
VdW6
SciTegic.value.DoubleValue
-9.057

@<SCITEGIC>MOL_PROPERTY
VdW12
SciTegic.value.DoubleValue
9.621

@<SCITEGIC>MOL_PROPERTY
Bond
SciTegic.value.DoubleValue
0.287

@<SCITEGIC>MOL_PROPERTY
Angle
SciTegic.value.DoubleValue
1.895

@<SCITEGIC>MOL_PROPERTY
Pdih
SciTegic.value.DoubleValue
3.685

@<SCITEGIC>MOL_PROPERTY
Idih
SciTegic.value.DoubleValue
0.000

@<SCITEGIC>MOL_PROPERTY
Tether
SciTegic.value.DoubleValue
0.000

@<TRIPOS>MOLECULE
guest-s14_vm2.mol2 : vm2 ligand conformer 165
          26          25           1
SMALL
USER_CHARGES
 
@<TRIPOS>ATOM
       1    C1      20.363345   20.625058   20.712737 C.3        1 MOL1        -0.2400
       2    H1      19.676251   21.299215   21.240544 H          1 MOL1         0.0971
       3    H2      21.290137   21.177998   20.511993 H          1 MOL1         0.0971
       4    H3      19.911359   20.363429   19.747106 H          1 MOL1         0.0971
       5    C2      20.653082   19.361881   21.550386 C.3        1 MOL1        -0.1385
       6    H4      21.140064   19.659956   22.486777 H          1 MOL1         0.0960
       7    H5      21.367140   18.722953   21.012326 H          1 MOL1         0.0960
       8    C3      19.360761   18.564038   21.843730 C.3        1 MOL1        -0.1409
       9    H6      18.632829   19.194791   22.368835 H          1 MOL1         0.0960
      10    H7      18.887087   18.299522   20.888283 H          1 MOL1         0.0960
      11    C4      19.605457   17.258102   22.640498 C.3        1 MOL1        -0.1409
      12    H8      20.255481   16.601242   22.046169 H          1 MOL1         0.0960
      13    H9      18.650978   16.722283   22.735489 H          1 MOL1         0.0960
      14    C5      20.228230   17.421608   24.053702 C.3        1 MOL1        -0.1409
      15    H10     20.367494   16.412244   24.464885 H          1 MOL1         0.0960
      16    H11     21.237938   17.844853   23.984450 H          1 MOL1         0.0960
      17    C6      19.358972   18.224446   25.058444 C.3        1 MOL1        -0.1450
      18    H12     19.581933   17.881944   26.077694 H          1 MOL1         0.0960
      19    H13     18.297930   17.996781   24.891175 H          1 MOL1         0.0960
      20    C7      19.568223   19.752111   25.008286 C.3        1 MOL1         0.0172
      21    H14     19.420572   20.122156   23.992032 H          1 MOL1         0.0934
      22    H15     18.832926   20.237512   25.655738 H          1 MOL1         0.0934
      23    N1      20.942929   20.191755   25.473216 N.4        1 MOL1        -0.5956
      24    H16     21.049893   21.211176   25.434094 H          1 MOL1         0.3624
      25    H17     21.687344   19.787201   24.897810 H          1 MOL1         0.3624
      26    H18     21.123081   19.909932   26.442320 H          1 MOL1         0.3624
@<TRIPOS>BOND
    1     1     2    1
    2     1     3    1
    3     1     4    1
    4     1     5    1
    5     5     6    1
    6     5     7    1
    7     5     8    1
    8     8     9    1
    9     8    10    1
   10     8    11    1
   11    11    12    1
   12    11    13    1
   13    11    14    1
   14    14    15    1
   15    14    16    1
   16    14    17    1
   17    17    18    1
   18    17    19    1
   19    17    20    1
   20    20    21    1
   21    20    22    1
   22    20    23    1
   23    23    24    1
   24    23    25    1
   25    23    26    1
@<TRIPOS>SUBSTRUCTURE
       1 MOL1            1 RESIDUE      1      MOL     
@<SCITEGIC>MOL_PROPERTY
VM2 Rank
SciTegic.value.IntegerValue
165

@<SCITEGIC>MOL_PROPERTY
Conf_Id
SciTegic.value.IntegerValue
703

@<SCITEGIC>MOL_PROPERTY
Probability
SciTegic.value.DoubleValue
0.00

@<SCITEGIC>MOL_PROPERTY
Sum Probability
SciTegic.value.DoubleValue
99.97

@<SCITEGIC>MOL_PROPERTY
Delta G
SciTegic.value.DoubleValue
4.534

@<SCITEGIC>MOL_PROPERTY
G
SciTegic.value.DoubleValue
52.795

@<SCITEGIC>MOL_PROPERTY
E
SciTegic.value.DoubleValue
19.343

@<SCITEGIC>MOL_PROPERTY
-TS
SciTegic.value.DoubleValue
33.452

@<SCITEGIC>MOL_PROPERTY
U+W
SciTegic.value.DoubleValue
-2.119

@<SCITEGIC>MOL_PROPERTY
U
SciTegic.value.DoubleValue
52.359

@<SCITEGIC>MOL_PROPERTY
W
SciTegic.value.DoubleValue
-54.478

@<SCITEGIC>MOL_PROPERTY
W(PB)
SciTegic.value.DoubleValue
-56.700

@<SCITEGIC>MOL_PROPERTY
W(SA)
SciTegic.value.DoubleValue
2.222

@<SCITEGIC>MOL_PROPERTY
Valence
SciTegic.value.DoubleValue
5.321

@<SCITEGIC>MOL_PROPERTY
Coulomb
SciTegic.value.DoubleValue
46.894

@<SCITEGIC>MOL_PROPERTY
VdW
SciTegic.value.DoubleValue
0.144

@<SCITEGIC>MOL_PROPERTY
VdW6
SciTegic.value.DoubleValue
-9.549

@<SCITEGIC>MOL_PROPERTY
VdW12
SciTegic.value.DoubleValue
9.693

@<SCITEGIC>MOL_PROPERTY
Bond
SciTegic.value.DoubleValue
0.274

@<SCITEGIC>MOL_PROPERTY
Angle
SciTegic.value.DoubleValue
1.814

@<SCITEGIC>MOL_PROPERTY
Pdih
SciTegic.value.DoubleValue
3.233

@<SCITEGIC>MOL_PROPERTY
Idih
SciTegic.value.DoubleValue
0.000

@<SCITEGIC>MOL_PROPERTY
Tether
SciTegic.value.DoubleValue
0.000

@<TRIPOS>MOLECULE
guest-s14_vm2.mol2 : vm2 ligand conformer 166
          26          25           1
SMALL
USER_CHARGES
 
@<TRIPOS>ATOM
       1    C1      21.122235   19.880755   20.830304 C.3        1 MOL1        -0.2400
       2    H1      22.199319   20.050050   20.703782 H          1 MOL1         0.0971
       3    H2      20.632557   20.107440   19.874409 H          1 MOL1         0.0971
       4    H3      20.759365   20.597103   21.576982 H          1 MOL1         0.0971
       5    C2      20.849951   18.420468   21.257974 C.3        1 MOL1        -0.1385
       6    H4      21.360060   18.198177   22.203579 H          1 MOL1         0.0960
       7    H5      21.300492   17.749004   20.513815 H          1 MOL1         0.0960
       8    C3      19.342691   18.085197   21.370531 C.3        1 MOL1        -0.1409
       9    H6      18.878775   18.228968   20.385004 H          1 MOL1         0.0960
      10    H7      19.235067   17.015167   21.595300 H          1 MOL1         0.0960
      11    C4      18.537558   18.901257   22.417793 C.3        1 MOL1        -0.1409
      12    H8      17.485190   18.600369   22.321334 H          1 MOL1         0.0960
      13    H9      18.554431   19.971559   22.173697 H          1 MOL1         0.0960
      14    C5      18.961522   18.669484   23.892195 C.3        1 MOL1        -0.1409
      15    H10     18.062556   18.729879   24.521373 H          1 MOL1         0.0960
      16    H11     19.347461   17.648590   24.011962 H          1 MOL1         0.0960
      17    C6      19.983343   19.708546   24.419668 C.3        1 MOL1        -0.1450
      18    H12     19.578999   20.719095   24.275110 H          1 MOL1         0.0960
      19    H13     20.918424   19.664484   23.851200 H          1 MOL1         0.0960
      20    C7      20.295657   19.521894   25.916739 C.3        1 MOL1         0.0172
      21    H14     20.946959   20.332201   26.255480 H          1 MOL1         0.0934
      22    H15     19.368488   19.565409   26.494533 H          1 MOL1         0.0934
      23    N1      20.988042   18.211397   26.235795 N.4        1 MOL1        -0.5956
      24    H16     21.881217   18.122209   25.740765 H          1 MOL1         0.3624
      25    H17     20.413185   17.405017   25.972835 H          1 MOL1         0.3624
      26    H18     21.190312   18.122133   27.237492 H          1 MOL1         0.3624
@<TRIPOS>BOND
    1     1     2    1
    2     1     3    1
    3     1     4    1
    4     1     5    1
    5     5     6    1
    6     5     7    1
    7     5     8    1
    8     8     9    1
    9     8    10    1
   10     8    11    1
   11    11    12    1
   12    11    13    1
   13    11    14    1
   14    14    15    1
   15    14    16    1
   16    14    17    1
   17    17    18    1
   18    17    19    1
   19    17    20    1
   20    20    21    1
   21    20    22    1
   22    20    23    1
   23    23    24    1
   24    23    25    1
   25    23    26    1
@<TRIPOS>SUBSTRUCTURE
       1 MOL1            1 RESIDUE      1      MOL     
@<SCITEGIC>MOL_PROPERTY
VM2 Rank
SciTegic.value.IntegerValue
166

@<SCITEGIC>MOL_PROPERTY
Conf_Id
SciTegic.value.IntegerValue
749

@<SCITEGIC>MOL_PROPERTY
Probability
SciTegic.value.DoubleValue
0.00

@<SCITEGIC>MOL_PROPERTY
Sum Probability
SciTegic.value.DoubleValue
99.98

@<SCITEGIC>MOL_PROPERTY
Delta G
SciTegic.value.DoubleValue
4.545

@<SCITEGIC>MOL_PROPERTY
G
SciTegic.value.DoubleValue
52.806

@<SCITEGIC>MOL_PROPERTY
E
SciTegic.value.DoubleValue
19.544

@<SCITEGIC>MOL_PROPERTY
-TS
SciTegic.value.DoubleValue
33.262

@<SCITEGIC>MOL_PROPERTY
U+W
SciTegic.value.DoubleValue
-1.917

@<SCITEGIC>MOL_PROPERTY
U
SciTegic.value.DoubleValue
52.271

@<SCITEGIC>MOL_PROPERTY
W
SciTegic.value.DoubleValue
-54.189

@<SCITEGIC>MOL_PROPERTY
W(PB)
SciTegic.value.DoubleValue
-56.407

@<SCITEGIC>MOL_PROPERTY
W(SA)
SciTegic.value.DoubleValue
2.218

@<SCITEGIC>MOL_PROPERTY
Valence
SciTegic.value.DoubleValue
5.856

@<SCITEGIC>MOL_PROPERTY
Coulomb
SciTegic.value.DoubleValue
45.879

@<SCITEGIC>MOL_PROPERTY
VdW
SciTegic.value.DoubleValue
0.537

@<SCITEGIC>MOL_PROPERTY
VdW6
SciTegic.value.DoubleValue
-9.012

@<SCITEGIC>MOL_PROPERTY
VdW12
SciTegic.value.DoubleValue
9.549

@<SCITEGIC>MOL_PROPERTY
Bond
SciTegic.value.DoubleValue
0.284

@<SCITEGIC>MOL_PROPERTY
Angle
SciTegic.value.DoubleValue
1.818

@<SCITEGIC>MOL_PROPERTY
Pdih
SciTegic.value.DoubleValue
3.754

@<SCITEGIC>MOL_PROPERTY
Idih
SciTegic.value.DoubleValue
0.000

@<SCITEGIC>MOL_PROPERTY
Tether
SciTegic.value.DoubleValue
0.000

@<TRIPOS>MOLECULE
guest-s14_vm2.mol2 : vm2 ligand conformer 167
          26          25           1
SMALL
USER_CHARGES
 
@<TRIPOS>ATOM
       1    C1      19.019216   19.484738   20.001269 C.3        1 MOL1        -0.2400
       2    H1      18.693705   18.554419   19.517801 H          1 MOL1         0.0971
       3    H2      18.147814   19.939052   20.490593 H          1 MOL1         0.0971
       4    H3      19.360323   20.171056   19.215383 H          1 MOL1         0.0971
       5    C2      20.148825   19.216372   21.018117 C.3        1 MOL1        -0.1385
       6    H4      20.473814   20.172101   21.450438 H          1 MOL1         0.0960
       7    H5      21.016843   18.791231   20.495211 H          1 MOL1         0.0960
       8    C3      19.690672   18.253391   22.138303 C.3        1 MOL1        -0.1409
       9    H6      18.845369   18.696872   22.678920 H          1 MOL1         0.0960
      10    H7      19.306992   17.331624   21.679562 H          1 MOL1         0.0960
      11    C4      20.823880   17.872558   23.126424 C.3        1 MOL1        -0.1409
      12    H8      21.617818   17.359364   22.566393 H          1 MOL1         0.0960
      13    H9      20.451642   17.128383   23.841071 H          1 MOL1         0.0960
      14    C5      21.459929   19.060381   23.896864 C.3        1 MOL1        -0.1409
      15    H10     22.232901   18.666218   24.570952 H          1 MOL1         0.0960
      16    H11     21.996251   19.701443   23.184736 H          1 MOL1         0.0960
      17    C6      20.484130   19.942916   24.720313 C.3        1 MOL1        -0.1450
      18    H12     19.721037   20.394774   24.074015 H          1 MOL1         0.0960
      19    H13     21.060544   20.783648   25.128469 H          1 MOL1         0.0960
      20    C7      19.819384   19.217637   25.908874 C.3        1 MOL1         0.0172
      21    H14     20.557110   18.591859   26.418163 H          1 MOL1         0.0934
      22    H15     19.455917   19.961566   26.622947 H          1 MOL1         0.0934
      23    N1      18.634963   18.351006   25.530837 N.4        1 MOL1        -0.5956
      24    H16     18.241319   17.868805   26.346274 H          1 MOL1         0.3624
      25    H17     18.896456   17.633149   24.849063 H          1 MOL1         0.3624
      26    H18     17.878136   18.904234   25.116376 H          1 MOL1         0.3624
@<TRIPOS>BOND
    1     1     2    1
    2     1     3    1
    3     1     4    1
    4     1     5    1
    5     5     6    1
    6     5     7    1
    7     5     8    1
    8     8     9    1
    9     8    10    1
   10     8    11    1
   11    11    12    1
   12    11    13    1
   13    11    14    1
   14    14    15    1
   15    14    16    1
   16    14    17    1
   17    17    18    1
   18    17    19    1
   19    17    20    1
   20    20    21    1
   21    20    22    1
   22    20    23    1
   23    23    24    1
   24    23    25    1
   25    23    26    1
@<TRIPOS>SUBSTRUCTURE
       1 MOL1            1 RESIDUE      1      MOL     
@<SCITEGIC>MOL_PROPERTY
VM2 Rank
SciTegic.value.IntegerValue
167

@<SCITEGIC>MOL_PROPERTY
Conf_Id
SciTegic.value.IntegerValue
552

@<SCITEGIC>MOL_PROPERTY
Probability
SciTegic.value.DoubleValue
0.00

@<SCITEGIC>MOL_PROPERTY
Sum Probability
SciTegic.value.DoubleValue
99.98

@<SCITEGIC>MOL_PROPERTY
Delta G
SciTegic.value.DoubleValue
4.588

@<SCITEGIC>MOL_PROPERTY
G
SciTegic.value.DoubleValue
52.849

@<SCITEGIC>MOL_PROPERTY
E
SciTegic.value.DoubleValue
19.528

@<SCITEGIC>MOL_PROPERTY
-TS
SciTegic.value.DoubleValue
33.322

@<SCITEGIC>MOL_PROPERTY
U+W
SciTegic.value.DoubleValue
-1.934

@<SCITEGIC>MOL_PROPERTY
U
SciTegic.value.DoubleValue
52.118

@<SCITEGIC>MOL_PROPERTY
W
SciTegic.value.DoubleValue
-54.052

@<SCITEGIC>MOL_PROPERTY
W(PB)
SciTegic.value.DoubleValue
-56.271

@<SCITEGIC>MOL_PROPERTY
W(SA)
SciTegic.value.DoubleValue
2.219

@<SCITEGIC>MOL_PROPERTY
Valence
SciTegic.value.DoubleValue
4.669

@<SCITEGIC>MOL_PROPERTY
Coulomb
SciTegic.value.DoubleValue
47.148

@<SCITEGIC>MOL_PROPERTY
VdW
SciTegic.value.DoubleValue
0.301

@<SCITEGIC>MOL_PROPERTY
VdW6
SciTegic.value.DoubleValue
-9.413

@<SCITEGIC>MOL_PROPERTY
VdW12
SciTegic.value.DoubleValue
9.714

@<SCITEGIC>MOL_PROPERTY
Bond
SciTegic.value.DoubleValue
0.278

@<SCITEGIC>MOL_PROPERTY
Angle
SciTegic.value.DoubleValue
1.801

@<SCITEGIC>MOL_PROPERTY
Pdih
SciTegic.value.DoubleValue
2.590

@<SCITEGIC>MOL_PROPERTY
Idih
SciTegic.value.DoubleValue
0.000

@<SCITEGIC>MOL_PROPERTY
Tether
SciTegic.value.DoubleValue
0.000

@<TRIPOS>MOLECULE
guest-s14_vm2.mol2 : vm2 ligand conformer 168
          26          25           1
SMALL
USER_CHARGES
 
@<TRIPOS>ATOM
       1    C1      20.072401   20.005873   20.396586 C.3        1 MOL1        -0.2400
       2    H1      19.322128   20.597024   20.937411 H          1 MOL1         0.0971
       3    H2      21.067468   20.266234   20.775552 H          1 MOL1         0.0971
       4    H3      20.040054   20.305397   19.341081 H          1 MOL1         0.0971
       5    C2      19.799566   18.492699   20.534615 C.3        1 MOL1        -0.1385
       6    H4      20.638048   17.928840   20.102630 H          1 MOL1         0.0960
       7    H5      18.919993   18.241094   19.925667 H          1 MOL1         0.0960
       8    C3      19.536997   18.012180   21.984944 C.3        1 MOL1        -0.1409
       9    H6      18.639566   18.498755   22.384928 H          1 MOL1         0.0960
      10    H7      19.282893   16.944700   21.928782 H          1 MOL1         0.0960
      11    C4      20.737119   18.157078   22.961422 C.3        1 MOL1        -0.1409
      12    H8      21.671562   17.961588   22.417884 H          1 MOL1         0.0960
      13    H9      20.668863   17.356915   23.710221 H          1 MOL1         0.0960
      14    C5      20.853147   19.516160   23.707872 C.3        1 MOL1        -0.1409
      15    H10     21.741875   19.480449   24.352075 H          1 MOL1         0.0960
      16    H11     21.049547   20.324549   22.995461 H          1 MOL1         0.0960
      17    C6      19.624744   19.905896   24.572291 C.3        1 MOL1        -0.1450
      18    H12     18.773776   20.144387   23.922279 H          1 MOL1         0.0960
      19    H13     19.848856   20.832181   25.117674 H          1 MOL1         0.0960
      20    C7      19.194930   18.820908   25.579736 C.3        1 MOL1         0.0172
      21    H14     18.307224   19.158548   26.121409 H          1 MOL1         0.0934
      22    H15     18.938434   17.902480   25.045290 H          1 MOL1         0.0934
      23    N1      20.262097   18.488206   26.603534 N.4        1 MOL1        -0.5956
      24    H16     20.521682   19.307842   27.161750 H          1 MOL1         0.3624
      25    H17     21.117210   18.142094   26.157679 H          1 MOL1         0.3624
      26    H18     19.948851   17.764961   27.259921 H          1 MOL1         0.3624
@<TRIPOS>BOND
    1     1     2    1
    2     1     3    1
    3     1     4    1
    4     1     5    1
    5     5     6    1
    6     5     7    1
    7     5     8    1
    8     8     9    1
    9     8    10    1
   10     8    11    1
   11    11    12    1
   12    11    13    1
   13    11    14    1
   14    14    15    1
   15    14    16    1
   16    14    17    1
   17    17    18    1
   18    17    19    1
   19    17    20    1
   20    20    21    1
   21    20    22    1
   22    20    23    1
   23    23    24    1
   24    23    25    1
   25    23    26    1
@<TRIPOS>SUBSTRUCTURE
       1 MOL1            1 RESIDUE      1      MOL     
@<SCITEGIC>MOL_PROPERTY
VM2 Rank
SciTegic.value.IntegerValue
168

@<SCITEGIC>MOL_PROPERTY
Conf_Id
SciTegic.value.IntegerValue
555

@<SCITEGIC>MOL_PROPERTY
Probability
SciTegic.value.DoubleValue
0.00

@<SCITEGIC>MOL_PROPERTY
Sum Probability
SciTegic.value.DoubleValue
99.98

@<SCITEGIC>MOL_PROPERTY
Delta G
SciTegic.value.DoubleValue
4.598

@<SCITEGIC>MOL_PROPERTY
G
SciTegic.value.DoubleValue
52.859

@<SCITEGIC>MOL_PROPERTY
E
SciTegic.value.DoubleValue
20.200

@<SCITEGIC>MOL_PROPERTY
-TS
SciTegic.value.DoubleValue
32.660

@<SCITEGIC>MOL_PROPERTY
U+W
SciTegic.value.DoubleValue
-1.262

@<SCITEGIC>MOL_PROPERTY
U
SciTegic.value.DoubleValue
52.795

@<SCITEGIC>MOL_PROPERTY
W
SciTegic.value.DoubleValue
-54.057

@<SCITEGIC>MOL_PROPERTY
W(PB)
SciTegic.value.DoubleValue
-56.269

@<SCITEGIC>MOL_PROPERTY
W(SA)
SciTegic.value.DoubleValue
2.212

@<SCITEGIC>MOL_PROPERTY
Valence
SciTegic.value.DoubleValue
6.281

@<SCITEGIC>MOL_PROPERTY
Coulomb
SciTegic.value.DoubleValue
45.824

@<SCITEGIC>MOL_PROPERTY
VdW
SciTegic.value.DoubleValue
0.690

@<SCITEGIC>MOL_PROPERTY
VdW6
SciTegic.value.DoubleValue
-9.607

@<SCITEGIC>MOL_PROPERTY
VdW12
SciTegic.value.DoubleValue
10.297

@<SCITEGIC>MOL_PROPERTY
Bond
SciTegic.value.DoubleValue
0.350

@<SCITEGIC>MOL_PROPERTY
Angle
SciTegic.value.DoubleValue
2.357

@<SCITEGIC>MOL_PROPERTY
Pdih
SciTegic.value.DoubleValue
3.574

@<SCITEGIC>MOL_PROPERTY
Idih
SciTegic.value.DoubleValue
0.000

@<SCITEGIC>MOL_PROPERTY
Tether
SciTegic.value.DoubleValue
0.000

@<TRIPOS>MOLECULE
guest-s14_vm2.mol2 : vm2 ligand conformer 169
          26          25           1
SMALL
USER_CHARGES
 
@<TRIPOS>ATOM
       1    C1      20.303789   20.630427   21.547557 C.3        1 MOL1        -0.2400
       2    H1      20.592550   20.566058   22.601196 H          1 MOL1         0.0971
       3    H2      20.966482   21.363239   21.069341 H          1 MOL1         0.0971
       4    H3      19.280670   21.024875   21.497423 H          1 MOL1         0.0971
       5    C2      20.406390   19.264033   20.831104 C.3        1 MOL1        -0.1385
       6    H4      21.439342   18.891094   20.867812 H          1 MOL1         0.0960
       7    H5      20.182116   19.425785   19.767420 H          1 MOL1         0.0960
       8    C3      19.426943   18.193372   21.378686 C.3        1 MOL1        -0.1409
       9    H6      18.497032   18.663470   21.724430 H          1 MOL1         0.0960
      10    H7      19.129630   17.552087   20.537447 H          1 MOL1         0.0960
      11    C4      20.016659   17.263549   22.473658 C.3        1 MOL1        -0.1409
      12    H8      20.894021   16.745227   22.062947 H          1 MOL1         0.0960
      13    H9      19.283525   16.475327   22.693628 H          1 MOL1         0.0960
      14    C5      20.421022   17.946456   23.803557 C.3        1 MOL1        -0.1409
      15    H10     20.848768   17.181703   24.466551 H          1 MOL1         0.0960
      16    H11     21.227806   18.665459   23.618723 H          1 MOL1         0.0960
      17    C6      19.234083   18.626240   24.531114 C.3        1 MOL1        -0.1450
      18    H12     18.425309   17.895639   24.664290 H          1 MOL1         0.0960
      19    H13     18.821921   19.440333   23.922395 H          1 MOL1         0.0960
      20    C7      19.625768   19.177539   25.915357 C.3        1 MOL1         0.0172
      21    H14     18.734935   19.565186   26.417015 H          1 MOL1         0.0934
      22    H15     20.038940   18.372133   26.528520 H          1 MOL1         0.0934
      23    N1      20.646346   20.297383   25.859968 N.4        1 MOL1        -0.5956
      24    H16     20.879179   20.644941   26.796642 H          1 MOL1         0.3624
      25    H17     20.303503   21.098511   25.320314 H          1 MOL1         0.3624
      26    H18     21.523095   19.990144   25.427877 H          1 MOL1         0.3624
@<TRIPOS>BOND
    1     1     2    1
    2     1     3    1
    3     1     4    1
    4     1     5    1
    5     5     6    1
    6     5     7    1
    7     5     8    1
    8     8     9    1
    9     8    10    1
   10     8    11    1
   11    11    12    1
   12    11    13    1
   13    11    14    1
   14    14    15    1
   15    14    16    1
   16    14    17    1
   17    17    18    1
   18    17    19    1
   19    17    20    1
   20    20    21    1
   21    20    22    1
   22    20    23    1
   23    23    24    1
   24    23    25    1
   25    23    26    1
@<TRIPOS>SUBSTRUCTURE
       1 MOL1            1 RESIDUE      1      MOL     
@<SCITEGIC>MOL_PROPERTY
VM2 Rank
SciTegic.value.IntegerValue
169

@<SCITEGIC>MOL_PROPERTY
Conf_Id
SciTegic.value.IntegerValue
965

@<SCITEGIC>MOL_PROPERTY
Probability
SciTegic.value.DoubleValue
0.00

@<SCITEGIC>MOL_PROPERTY
Sum Probability
SciTegic.value.DoubleValue
99.99

@<SCITEGIC>MOL_PROPERTY
Delta G
SciTegic.value.DoubleValue
4.818

@<SCITEGIC>MOL_PROPERTY
G
SciTegic.value.DoubleValue
53.079

@<SCITEGIC>MOL_PROPERTY
E
SciTegic.value.DoubleValue
19.768

@<SCITEGIC>MOL_PROPERTY
-TS
SciTegic.value.DoubleValue
33.311

@<SCITEGIC>MOL_PROPERTY
U+W
SciTegic.value.DoubleValue
-1.694

@<SCITEGIC>MOL_PROPERTY
U
SciTegic.value.DoubleValue
52.675

@<SCITEGIC>MOL_PROPERTY
W
SciTegic.value.DoubleValue
-54.369

@<SCITEGIC>MOL_PROPERTY
W(PB)
SciTegic.value.DoubleValue
-56.548

@<SCITEGIC>MOL_PROPERTY
W(SA)
SciTegic.value.DoubleValue
2.179

@<SCITEGIC>MOL_PROPERTY
Valence
SciTegic.value.DoubleValue
5.835

@<SCITEGIC>MOL_PROPERTY
Coulomb
SciTegic.value.DoubleValue
46.483

@<SCITEGIC>MOL_PROPERTY
VdW
SciTegic.value.DoubleValue
0.357

@<SCITEGIC>MOL_PROPERTY
VdW6
SciTegic.value.DoubleValue
-9.272

@<SCITEGIC>MOL_PROPERTY
VdW12
SciTegic.value.DoubleValue
9.629

@<SCITEGIC>MOL_PROPERTY
Bond
SciTegic.value.DoubleValue
0.284

@<SCITEGIC>MOL_PROPERTY
Angle
SciTegic.value.DoubleValue
1.858

@<SCITEGIC>MOL_PROPERTY
Pdih
SciTegic.value.DoubleValue
3.694

@<SCITEGIC>MOL_PROPERTY
Idih
SciTegic.value.DoubleValue
0.000

@<SCITEGIC>MOL_PROPERTY
Tether
SciTegic.value.DoubleValue
0.000

@<TRIPOS>MOLECULE
guest-s14_vm2.mol2 : vm2 ligand conformer 170
          26          25           1
SMALL
USER_CHARGES
 
@<TRIPOS>ATOM
       1    C1      18.408810   19.378759   21.484620 C.3        1 MOL1        -0.2400
       2    H1      18.306084   19.055706   22.525180 H          1 MOL1         0.0971
       3    H2      18.449076   20.475590   21.470034 H          1 MOL1         0.0971
       4    H3      17.498108   19.072372   20.953944 H          1 MOL1         0.0971
       5    C2      19.657658   18.769544   20.806310 C.3        1 MOL1        -0.1385
       6    H4      19.646069   19.071847   19.749729 H          1 MOL1         0.0960
       7    H5      19.594433   17.672536   20.806442 H          1 MOL1         0.0960
       8    C3      20.999619   19.232232   21.431239 C.3        1 MOL1        -0.1409
       9    H6      21.744351   19.279316   20.624714 H          1 MOL1         0.0960
      10    H7      20.915492   20.260984   21.805217 H          1 MOL1         0.0960
      11    C4      21.572638   18.291312   22.525595 C.3        1 MOL1        -0.1409
      12    H8      22.573748   18.648719   22.803454 H          1 MOL1         0.0960
      13    H9      21.724782   17.293939   22.090618 H          1 MOL1         0.0960
      14    C5      20.724999   18.147055   23.813696 C.3        1 MOL1        -0.1409
      15    H10     19.757060   17.693702   23.569580 H          1 MOL1         0.0960
      16    H11     21.229698   17.433087   24.479207 H          1 MOL1         0.0960
      17    C6      20.530887   19.482632   24.574500 C.3        1 MOL1        -0.1450
      18    H12     19.972481   20.200106   23.960844 H          1 MOL1         0.0960
      19    H13     21.512689   19.934683   24.767747 H          1 MOL1         0.0960
      20    C7      19.806256   19.296702   25.921278 C.3        1 MOL1         0.0172
      21    H14     20.355985   18.581477   26.539022 H          1 MOL1         0.0934
      22    H15     19.775386   20.252266   26.451802 H          1 MOL1         0.0934
      23    N1      18.380133   18.800764   25.783763 N.4        1 MOL1        -0.5956
      24    H16     17.925836   18.694507   26.697376 H          1 MOL1         0.3624
      25    H17     18.339362   17.887619   25.320846 H          1 MOL1         0.3624
      26    H18     17.803361   19.447435   25.236290 H          1 MOL1         0.3624
@<TRIPOS>BOND
    1     1     2    1
    2     1     3    1
    3     1     4    1
    4     1     5    1
    5     5     6    1
    6     5     7    1
    7     5     8    1
    8     8     9    1
    9     8    10    1
   10     8    11    1
   11    11    12    1
   12    11    13    1
   13    11    14    1
   14    14    15    1
   15    14    16    1
   16    14    17    1
   17    17    18    1
   18    17    19    1
   19    17    20    1
   20    20    21    1
   21    20    22    1
   22    20    23    1
   23    23    24    1
   24    23    25    1
   25    23    26    1
@<TRIPOS>SUBSTRUCTURE
       1 MOL1            1 RESIDUE      1      MOL     
@<SCITEGIC>MOL_PROPERTY
VM2 Rank
SciTegic.value.IntegerValue
170

@<SCITEGIC>MOL_PROPERTY
Conf_Id
SciTegic.value.IntegerValue
407

@<SCITEGIC>MOL_PROPERTY
Probability
SciTegic.value.DoubleValue
0.00

@<SCITEGIC>MOL_PROPERTY
Sum Probability
SciTegic.value.DoubleValue
99.99

@<SCITEGIC>MOL_PROPERTY
Delta G
SciTegic.value.DoubleValue
4.910

@<SCITEGIC>MOL_PROPERTY
G
SciTegic.value.DoubleValue
53.171

@<SCITEGIC>MOL_PROPERTY
E
SciTegic.value.DoubleValue
19.860

@<SCITEGIC>MOL_PROPERTY
-TS
SciTegic.value.DoubleValue
33.311

@<SCITEGIC>MOL_PROPERTY
U+W
SciTegic.value.DoubleValue
-1.602

@<SCITEGIC>MOL_PROPERTY
U
SciTegic.value.DoubleValue
52.676

@<SCITEGIC>MOL_PROPERTY
W
SciTegic.value.DoubleValue
-54.278

@<SCITEGIC>MOL_PROPERTY
W(PB)
SciTegic.value.DoubleValue
-56.460

@<SCITEGIC>MOL_PROPERTY
W(SA)
SciTegic.value.DoubleValue
2.182

@<SCITEGIC>MOL_PROPERTY
Valence
SciTegic.value.DoubleValue
5.835

@<SCITEGIC>MOL_PROPERTY
Coulomb
SciTegic.value.DoubleValue
46.484

@<SCITEGIC>MOL_PROPERTY
VdW
SciTegic.value.DoubleValue
0.357

@<SCITEGIC>MOL_PROPERTY
VdW6
SciTegic.value.DoubleValue
-9.273

@<SCITEGIC>MOL_PROPERTY
VdW12
SciTegic.value.DoubleValue
9.630

@<SCITEGIC>MOL_PROPERTY
Bond
SciTegic.value.DoubleValue
0.284

@<SCITEGIC>MOL_PROPERTY
Angle
SciTegic.value.DoubleValue
1.858

@<SCITEGIC>MOL_PROPERTY
Pdih
SciTegic.value.DoubleValue
3.694

@<SCITEGIC>MOL_PROPERTY
Idih
SciTegic.value.DoubleValue
0.000

@<SCITEGIC>MOL_PROPERTY
Tether
SciTegic.value.DoubleValue
0.000

@<TRIPOS>MOLECULE
guest-s14_vm2.mol2 : vm2 ligand conformer 171
          26          25           1
SMALL
USER_CHARGES
 
@<TRIPOS>ATOM
       1    C1      18.952183   19.610616   20.635124 C.3        1 MOL1        -0.2400
       2    H1      18.483299   19.496633   19.649213 H          1 MOL1         0.0971
       3    H2      18.274782   19.166961   21.371862 H          1 MOL1         0.0971
       4    H3      19.029097   20.685399   20.844291 H          1 MOL1         0.0971
       5    C2      20.346133   18.941904   20.647753 C.3        1 MOL1        -0.1385
       6    H4      20.929659   19.370046   19.820664 H          1 MOL1         0.0960
       7    H5      20.255380   17.869062   20.428302 H          1 MOL1         0.0960
       8    C3      21.138321   19.157708   21.963680 C.3        1 MOL1        -0.1409
       9    H6      22.206289   19.184306   21.706720 H          1 MOL1         0.0960
      10    H7      20.919520   20.146446   22.387609 H          1 MOL1         0.0960
      11    C4      20.955824   18.044405   23.030537 C.3        1 MOL1        -0.1409
      12    H8      21.687502   18.208250   23.832814 H          1 MOL1         0.0960
      13    H9      21.227014   17.078074   22.583712 H          1 MOL1         0.0960
      14    C5      19.541867   17.922306   23.655711 C.3        1 MOL1        -0.1409
      15    H10     18.826426   17.609226   22.885431 H          1 MOL1         0.0960
      16    H11     19.552525   17.101482   24.385108 H          1 MOL1         0.0960
      17    C6      19.025501   19.209712   24.351036 C.3        1 MOL1        -0.1450
      18    H12     18.034963   19.014709   24.782711 H          1 MOL1         0.0960
      19    H13     18.878009   20.001078   23.606019 H          1 MOL1         0.0960
      20    C7      19.961328   19.741411   25.454901 C.3        1 MOL1         0.0172
      21    H14     20.942000   19.968564   25.028819 H          1 MOL1         0.0934
      22    H15     19.547744   20.665347   25.868088 H          1 MOL1         0.0934
      23    N1      20.159843   18.770938   26.602257 N.4        1 MOL1        -0.5956
      24    H16     20.782920   19.153207   27.321763 H          1 MOL1         0.3624
      25    H17     20.572385   17.889086   26.282969 H          1 MOL1         0.3624
      26    H18     19.273680   18.541705   27.063723 H          1 MOL1         0.3624
@<TRIPOS>BOND
    1     1     2    1
    2     1     3    1
    3     1     4    1
    4     1     5    1
    5     5     6    1
    6     5     7    1
    7     5     8    1
    8     8     9    1
    9     8    10    1
   10     8    11    1
   11    11    12    1
   12    11    13    1
   13    11    14    1
   14    14    15    1
   15    14    16    1
   16    14    17    1
   17    17    18    1
   18    17    19    1
   19    17    20    1
   20    20    21    1
   21    20    22    1
   22    20    23    1
   23    23    24    1
   24    23    25    1
   25    23    26    1
@<TRIPOS>SUBSTRUCTURE
       1 MOL1            1 RESIDUE      1      MOL     
@<SCITEGIC>MOL_PROPERTY
VM2 Rank
SciTegic.value.IntegerValue
171

@<SCITEGIC>MOL_PROPERTY
Conf_Id
SciTegic.value.IntegerValue
276

@<SCITEGIC>MOL_PROPERTY
Probability
SciTegic.value.DoubleValue
0.00

@<SCITEGIC>MOL_PROPERTY
Sum Probability
SciTegic.value.DoubleValue
99.99

@<SCITEGIC>MOL_PROPERTY
Delta G
SciTegic.value.DoubleValue
4.949

@<SCITEGIC>MOL_PROPERTY
G
SciTegic.value.DoubleValue
53.211

@<SCITEGIC>MOL_PROPERTY
E
SciTegic.value.DoubleValue
19.693

@<SCITEGIC>MOL_PROPERTY
-TS
SciTegic.value.DoubleValue
33.518

@<SCITEGIC>MOL_PROPERTY
U+W
SciTegic.value.DoubleValue
-1.769

@<SCITEGIC>MOL_PROPERTY
U
SciTegic.value.DoubleValue
52.331

@<SCITEGIC>MOL_PROPERTY
W
SciTegic.value.DoubleValue
-54.099

@<SCITEGIC>MOL_PROPERTY
W(PB)
SciTegic.value.DoubleValue
-56.293

@<SCITEGIC>MOL_PROPERTY
W(SA)
SciTegic.value.DoubleValue
2.194

@<SCITEGIC>MOL_PROPERTY
Valence
SciTegic.value.DoubleValue
6.095

@<SCITEGIC>MOL_PROPERTY
Coulomb
SciTegic.value.DoubleValue
45.826

@<SCITEGIC>MOL_PROPERTY
VdW
SciTegic.value.DoubleValue
0.409

@<SCITEGIC>MOL_PROPERTY
VdW6
SciTegic.value.DoubleValue
-9.963

@<SCITEGIC>MOL_PROPERTY
VdW12
SciTegic.value.DoubleValue
10.373

@<SCITEGIC>MOL_PROPERTY
Bond
SciTegic.value.DoubleValue
0.316

@<SCITEGIC>MOL_PROPERTY
Angle
SciTegic.value.DoubleValue
2.141

@<SCITEGIC>MOL_PROPERTY
Pdih
SciTegic.value.DoubleValue
3.639

@<SCITEGIC>MOL_PROPERTY
Idih
SciTegic.value.DoubleValue
0.000

@<SCITEGIC>MOL_PROPERTY
Tether
SciTegic.value.DoubleValue
0.000

@<TRIPOS>MOLECULE
guest-s14_vm2.mol2 : vm2 ligand conformer 172
          26          25           1
SMALL
USER_CHARGES
 
@<TRIPOS>ATOM
       1    C1      19.223593   18.150134   20.532898 C.3        1 MOL1        -0.2400
       2    H1      18.277507   17.669432   20.252424 H          1 MOL1         0.0971
       3    H2      19.634074   18.632660   19.636463 H          1 MOL1         0.0971
       4    H3      19.916386   17.358995   20.845564 H          1 MOL1         0.0971
       5    C2      18.994002   19.179835   21.661873 C.3        1 MOL1        -0.1385
       6    H4      18.599666   18.669128   22.548547 H          1 MOL1         0.0960
       7    H5      18.210836   19.882773   21.345478 H          1 MOL1         0.0960
       8    C3      20.265802   19.988290   22.024319 C.3        1 MOL1        -0.1409
       9    H6      20.581599   20.556863   21.138862 H          1 MOL1         0.0960
      10    H7      20.016521   20.744915   22.778669 H          1 MOL1         0.0960
      11    C4      21.469615   19.142379   22.516068 C.3        1 MOL1        -0.1409
      12    H8      22.309240   19.819093   22.725910 H          1 MOL1         0.0960
      13    H9      21.814406   18.501641   21.693706 H          1 MOL1         0.0960
      14    C5      21.220008   18.254408   23.764955 C.3        1 MOL1        -0.1409
      15    H10     20.433184   17.516847   23.563896 H          1 MOL1         0.0960
      16    H11     22.132330   17.664883   23.930217 H          1 MOL1         0.0960
      17    C6      20.925614   19.039628   25.071233 C.3        1 MOL1        -0.1450
      18    H12     21.540814   19.948591   25.100831 H          1 MOL1         0.0960
      19    H13     21.243309   18.434828   25.930979 H          1 MOL1         0.0960
      20    C7      19.444478   19.419435   25.272357 C.3        1 MOL1         0.0172
      21    H14     19.354990   20.067831   26.148165 H          1 MOL1         0.0934
      22    H15     19.073203   19.969091   24.405612 H          1 MOL1         0.0934
      23    N1      18.537889   18.224892   25.497297 N.4        1 MOL1        -0.5956
      24    H16     18.812113   17.693138   26.329832 H          1 MOL1         0.3624
      25    H17     18.558503   17.576481   24.704710 H          1 MOL1         0.3624
      26    H18     17.561309   18.508098   25.632615 H          1 MOL1         0.3624
@<TRIPOS>BOND
    1     1     2    1
    2     1     3    1
    3     1     4    1
    4     1     5    1
    5     5     6    1
    6     5     7    1
    7     5     8    1
    8     8     9    1
    9     8    10    1
   10     8    11    1
   11    11    12    1
   12    11    13    1
   13    11    14    1
   14    14    15    1
   15    14    16    1
   16    14    17    1
   17    17    18    1
   18    17    19    1
   19    17    20    1
   20    20    21    1
   21    20    22    1
   22    20    23    1
   23    23    24    1
   24    23    25    1
   25    23    26    1
@<TRIPOS>SUBSTRUCTURE
       1 MOL1            1 RESIDUE      1      MOL     
@<SCITEGIC>MOL_PROPERTY
VM2 Rank
SciTegic.value.IntegerValue
172

@<SCITEGIC>MOL_PROPERTY
Conf_Id
SciTegic.value.IntegerValue
566

@<SCITEGIC>MOL_PROPERTY
Probability
SciTegic.value.DoubleValue
0.00

@<SCITEGIC>MOL_PROPERTY
Sum Probability
SciTegic.value.DoubleValue
99.99

@<SCITEGIC>MOL_PROPERTY
Delta G
SciTegic.value.DoubleValue
5.091

@<SCITEGIC>MOL_PROPERTY
G
SciTegic.value.DoubleValue
53.353

@<SCITEGIC>MOL_PROPERTY
E
SciTegic.value.DoubleValue
19.657

@<SCITEGIC>MOL_PROPERTY
-TS
SciTegic.value.DoubleValue
33.695

@<SCITEGIC>MOL_PROPERTY
U+W
SciTegic.value.DoubleValue
-1.804

@<SCITEGIC>MOL_PROPERTY
U
SciTegic.value.DoubleValue
52.878

@<SCITEGIC>MOL_PROPERTY
W
SciTegic.value.DoubleValue
-54.683

@<SCITEGIC>MOL_PROPERTY
W(PB)
SciTegic.value.DoubleValue
-56.876

@<SCITEGIC>MOL_PROPERTY
W(SA)
SciTegic.value.DoubleValue
2.193

@<SCITEGIC>MOL_PROPERTY
Valence
SciTegic.value.DoubleValue
5.780

@<SCITEGIC>MOL_PROPERTY
Coulomb
SciTegic.value.DoubleValue
46.918

@<SCITEGIC>MOL_PROPERTY
VdW
SciTegic.value.DoubleValue
0.181

@<SCITEGIC>MOL_PROPERTY
VdW6
SciTegic.value.DoubleValue
-10.252

@<SCITEGIC>MOL_PROPERTY
VdW12
SciTegic.value.DoubleValue
10.433

@<SCITEGIC>MOL_PROPERTY
Bond
SciTegic.value.DoubleValue
0.311

@<SCITEGIC>MOL_PROPERTY
Angle
SciTegic.value.DoubleValue
2.153

@<SCITEGIC>MOL_PROPERTY
Pdih
SciTegic.value.DoubleValue
3.315

@<SCITEGIC>MOL_PROPERTY
Idih
SciTegic.value.DoubleValue
0.000

@<SCITEGIC>MOL_PROPERTY
Tether
SciTegic.value.DoubleValue
0.000

@<TRIPOS>MOLECULE
guest-s14_vm2.mol2 : vm2 ligand conformer 173
          26          25           1
SMALL
USER_CHARGES
 
@<TRIPOS>ATOM
       1    C1      20.020011   19.230716   19.983235 C.3        1 MOL1        -0.2400
       2    H1      20.683523   19.626784   19.203690 H          1 MOL1         0.0971
       3    H2      19.379222   18.467355   19.523258 H          1 MOL1         0.0971
       4    H3      19.382008   20.055408   20.324331 H          1 MOL1         0.0971
       5    C2      20.845851   18.635241   21.145825 C.3        1 MOL1        -0.1385
       6    H4      21.465062   19.420133   21.600272 H          1 MOL1         0.0960
       7    H5      21.548742   17.895928   20.737240 H          1 MOL1         0.0960
       8    C3      19.977123   17.944862   22.227731 C.3        1 MOL1        -0.1409
       9    H6      19.439962   17.104944   21.766098 H          1 MOL1         0.0960
      10    H7      20.640976   17.494939   22.976404 H          1 MOL1         0.0960
      11    C4      18.944449   18.867844   22.930031 C.3        1 MOL1        -0.1409
      12    H8      18.372110   18.283801   23.660738 H          1 MOL1         0.0960
      13    H9      18.201073   19.198073   22.192383 H          1 MOL1         0.0960
      14    C5      19.542074   20.122197   23.621183 C.3        1 MOL1        -0.1409
      15    H10     19.960279   20.786227   22.853089 H          1 MOL1         0.0960
      16    H11     18.723675   20.691210   24.083329 H          1 MOL1         0.0960
      17    C6      20.632521   19.856769   24.693341 C.3        1 MOL1        -0.1450
      18    H12     21.023776   20.830225   25.017302 H          1 MOL1         0.0960
      19    H13     21.488484   19.323569   24.260814 H          1 MOL1         0.0960
      20    C7      20.123085   19.121459   25.950421 C.3        1 MOL1         0.0172
      21    H14     20.821222   19.296245   26.773515 H          1 MOL1         0.0934
      22    H15     19.148584   19.521840   26.242389 H          1 MOL1         0.0934
      23    N1      19.995885   17.619912   25.789233 N.4        1 MOL1        -0.5956
      24    H16     19.632202   17.175926   26.639520 H          1 MOL1         0.3624
      25    H17     20.900774   17.182885   25.587266 H          1 MOL1         0.3624
      26    H18     19.361835   17.376022   25.023134 H          1 MOL1         0.3624
@<TRIPOS>BOND
    1     1     2    1
    2     1     3    1
    3     1     4    1
    4     1     5    1
    5     5     6    1
    6     5     7    1
    7     5     8    1
    8     8     9    1
    9     8    10    1
   10     8    11    1
   11    11    12    1
   12    11    13    1
   13    11    14    1
   14    14    15    1
   15    14    16    1
   16    14    17    1
   17    17    18    1
   18    17    19    1
   19    17    20    1
   20    20    21    1
   21    20    22    1
   22    20    23    1
   23    23    24    1
   24    23    25    1
   25    23    26    1
@<TRIPOS>SUBSTRUCTURE
       1 MOL1            1 RESIDUE      1      MOL     
@<SCITEGIC>MOL_PROPERTY
VM2 Rank
SciTegic.value.IntegerValue
173

@<SCITEGIC>MOL_PROPERTY
Conf_Id
SciTegic.value.IntegerValue
845

@<SCITEGIC>MOL_PROPERTY
Probability
SciTegic.value.DoubleValue
0.00

@<SCITEGIC>MOL_PROPERTY
Sum Probability
SciTegic.value.DoubleValue
99.99

@<SCITEGIC>MOL_PROPERTY
Delta G
SciTegic.value.DoubleValue
5.139

@<SCITEGIC>MOL_PROPERTY
G
SciTegic.value.DoubleValue
53.401

@<SCITEGIC>MOL_PROPERTY
E
SciTegic.value.DoubleValue
19.774

@<SCITEGIC>MOL_PROPERTY
-TS
SciTegic.value.DoubleValue
33.626

@<SCITEGIC>MOL_PROPERTY
U+W
SciTegic.value.DoubleValue
-1.687

@<SCITEGIC>MOL_PROPERTY
U
SciTegic.value.DoubleValue
52.543

@<SCITEGIC>MOL_PROPERTY
W
SciTegic.value.DoubleValue
-54.230

@<SCITEGIC>MOL_PROPERTY
W(PB)
SciTegic.value.DoubleValue
-56.419

@<SCITEGIC>MOL_PROPERTY
W(SA)
SciTegic.value.DoubleValue
2.189

@<SCITEGIC>MOL_PROPERTY
Valence
SciTegic.value.DoubleValue
5.103

@<SCITEGIC>MOL_PROPERTY
Coulomb
SciTegic.value.DoubleValue
47.136

@<SCITEGIC>MOL_PROPERTY
VdW
SciTegic.value.DoubleValue
0.304

@<SCITEGIC>MOL_PROPERTY
VdW6
SciTegic.value.DoubleValue
-10.241

@<SCITEGIC>MOL_PROPERTY
VdW12
SciTegic.value.DoubleValue
10.545

@<SCITEGIC>MOL_PROPERTY
Bond
SciTegic.value.DoubleValue
0.320

@<SCITEGIC>MOL_PROPERTY
Angle
SciTegic.value.DoubleValue
2.105

@<SCITEGIC>MOL_PROPERTY
Pdih
SciTegic.value.DoubleValue
2.678

@<SCITEGIC>MOL_PROPERTY
Idih
SciTegic.value.DoubleValue
0.000

@<SCITEGIC>MOL_PROPERTY
Tether
SciTegic.value.DoubleValue
0.000

@<TRIPOS>MOLECULE
guest-s14_vm2.mol2 : vm2 ligand conformer 174
          26          25           1
SMALL
USER_CHARGES
 
@<TRIPOS>ATOM
       1    C1      19.879301   19.138166   19.978617 C.3        1 MOL1        -0.2400
       2    H1      19.357512   20.039378   20.323672 H          1 MOL1         0.0971
       3    H2      20.853761   19.438852   19.572510 H          1 MOL1         0.0971
       4    H3      19.290678   18.709494   19.157294 H          1 MOL1         0.0971
       5    C2      20.046836   18.108946   21.119171 C.3        1 MOL1        -0.1385
       6    H4      20.467788   17.183961   20.701099 H          1 MOL1         0.0960
       7    H5      19.061357   17.836792   21.520121 H          1 MOL1         0.0960
       8    C3      20.972437   18.600379   22.260919 C.3        1 MOL1        -0.1409
       9    H6      21.089282   17.790135   22.991327 H          1 MOL1         0.0960
      10    H7      21.976482   18.775608   21.850677 H          1 MOL1         0.0960
      11    C4      20.499127   19.891764   22.981919 C.3        1 MOL1        -0.1409
      12    H8      20.523037   20.727365   22.269892 H          1 MOL1         0.0960
      13    H9      21.226691   20.163869   23.756012 H          1 MOL1         0.0960
      14    C5      19.080106   19.817887   23.605757 C.3        1 MOL1        -0.1409
      15    H10     18.858583   20.779955   24.087925 H          1 MOL1         0.0960
      16    H11     18.341564   19.720165   22.799032 H          1 MOL1         0.0960
      17    C6      18.844371   18.678943   24.633517 C.3        1 MOL1        -0.1450
      18    H12     19.016979   17.695652   24.178109 H          1 MOL1         0.0960
      19    H13     17.781535   18.694649   24.908802 H          1 MOL1         0.0960
      20    C7      19.661338   18.817265   25.935010 C.3        1 MOL1         0.0172
      21    H14     19.663703   19.861146   26.259833 H          1 MOL1         0.0934
      22    H15     19.187678   18.219969   26.718793 H          1 MOL1         0.0934
      23    N1      21.097484   18.345650   25.826090 N.4        1 MOL1        -0.5956
      24    H16     21.606734   18.855108   25.098404 H          1 MOL1         0.3624
      25    H17     21.151966   17.348441   25.595413 H          1 MOL1         0.3624
      26    H18     21.608557   18.477749   26.705709 H          1 MOL1         0.3624
@<TRIPOS>BOND
    1     1     2    1
    2     1     3    1
    3     1     4    1
    4     1     5    1
    5     5     6    1
    6     5     7    1
    7     5     8    1
    8     8     9    1
    9     8    10    1
   10     8    11    1
   11    11    12    1
   12    11    13    1
   13    11    14    1
   14    14    15    1
   15    14    16    1
   16    14    17    1
   17    17    18    1
   18    17    19    1
   19    17    20    1
   20    20    21    1
   21    20    22    1
   22    20    23    1
   23    23    24    1
   24    23    25    1
   25    23    26    1
@<TRIPOS>SUBSTRUCTURE
       1 MOL1            1 RESIDUE      1      MOL     
@<SCITEGIC>MOL_PROPERTY
VM2 Rank
SciTegic.value.IntegerValue
174

@<SCITEGIC>MOL_PROPERTY
Conf_Id
SciTegic.value.IntegerValue
175

@<SCITEGIC>MOL_PROPERTY
Probability
SciTegic.value.DoubleValue
0.00

@<SCITEGIC>MOL_PROPERTY
Sum Probability
SciTegic.value.DoubleValue
100.00

@<SCITEGIC>MOL_PROPERTY
Delta G
SciTegic.value.DoubleValue
5.212

@<SCITEGIC>MOL_PROPERTY
G
SciTegic.value.DoubleValue
53.474

@<SCITEGIC>MOL_PROPERTY
E
SciTegic.value.DoubleValue
19.847

@<SCITEGIC>MOL_PROPERTY
-TS
SciTegic.value.DoubleValue
33.626

@<SCITEGIC>MOL_PROPERTY
U+W
SciTegic.value.DoubleValue
-1.615

@<SCITEGIC>MOL_PROPERTY
U
SciTegic.value.DoubleValue
52.543

@<SCITEGIC>MOL_PROPERTY
W
SciTegic.value.DoubleValue
-54.157

@<SCITEGIC>MOL_PROPERTY
W(PB)
SciTegic.value.DoubleValue
-56.334

@<SCITEGIC>MOL_PROPERTY
W(SA)
SciTegic.value.DoubleValue
2.177

@<SCITEGIC>MOL_PROPERTY
Valence
SciTegic.value.DoubleValue
5.103

@<SCITEGIC>MOL_PROPERTY
Coulomb
SciTegic.value.DoubleValue
47.136

@<SCITEGIC>MOL_PROPERTY
VdW
SciTegic.value.DoubleValue
0.304

@<SCITEGIC>MOL_PROPERTY
VdW6
SciTegic.value.DoubleValue
-10.241

@<SCITEGIC>MOL_PROPERTY
VdW12
SciTegic.value.DoubleValue
10.545

@<SCITEGIC>MOL_PROPERTY
Bond
SciTegic.value.DoubleValue
0.320

@<SCITEGIC>MOL_PROPERTY
Angle
SciTegic.value.DoubleValue
2.105

@<SCITEGIC>MOL_PROPERTY
Pdih
SciTegic.value.DoubleValue
2.678

@<SCITEGIC>MOL_PROPERTY
Idih
SciTegic.value.DoubleValue
0.000

@<SCITEGIC>MOL_PROPERTY
Tether
SciTegic.value.DoubleValue
0.000

@<TRIPOS>MOLECULE
guest-s14_vm2.mol2 : vm2 ligand conformer 175
          26          25           1
SMALL
USER_CHARGES
 
@<TRIPOS>ATOM
       1    C1      20.374975   20.508797   20.473277 C.3        1 MOL1        -0.2400
       2    H1      19.589128   20.371553   19.719041 H          1 MOL1         0.0971
       3    H2      20.086744   21.349614   21.117545 H          1 MOL1         0.0971
       4    H3      21.298765   20.786773   19.949423 H          1 MOL1         0.0971
       5    C2      20.582814   19.221374   21.298605 C.3        1 MOL1        -0.1385
       6    H4      21.405295   19.383532   22.005697 H          1 MOL1         0.0960
       7    H5      20.897778   18.408079   20.629906 H          1 MOL1         0.0960
       8    C3      19.290849   18.809733   22.044560 C.3        1 MOL1        -0.1409
       9    H6      18.965328   19.621214   22.703380 H          1 MOL1         0.0960
      10    H7      18.486701   18.692411   21.305018 H          1 MOL1         0.0960
      11    C4      19.417491   17.475953   22.827836 C.3        1 MOL1        -0.1409
      12    H8      19.712085   16.694018   22.114276 H          1 MOL1         0.0960
      13    H9      18.426868   17.176664   23.196725 H          1 MOL1         0.0960
      14    C5      20.427087   17.462736   24.009179 C.3        1 MOL1        -0.1409
      15    H10     20.717915   16.417007   24.180070 H          1 MOL1         0.0960
      16    H11     21.359056   17.973723   23.741490 H          1 MOL1         0.0960
      17    C6      19.876244   18.003634   25.356165 C.3        1 MOL1        -0.1450
      18    H12     20.629395   17.835004   26.137275 H          1 MOL1         0.0960
      19    H13     18.999184   17.412901   25.651941 H          1 MOL1         0.0960
      20    C7      19.490226   19.495249   25.365741 C.3        1 MOL1         0.0172
      21    H14     18.650491   19.664881   24.688562 H          1 MOL1         0.0934
      22    H15     19.169775   19.777793   26.372190 H          1 MOL1         0.0934
      23    N1      20.621313   20.421525   24.965637 N.4        1 MOL1        -0.5956
      24    H16     20.939866   20.228843   24.011110 H          1 MOL1         0.3624
      25    H17     21.431135   20.320754   25.586288 H          1 MOL1         0.3624
      26    H18     20.336973   21.406569   25.000125 H          1 MOL1         0.3624
@<TRIPOS>BOND
    1     1     2    1
    2     1     3    1
    3     1     4    1
    4     1     5    1
    5     5     6    1
    6     5     7    1
    7     5     8    1
    8     8     9    1
    9     8    10    1
   10     8    11    1
   11    11    12    1
   12    11    13    1
   13    11    14    1
   14    14    15    1
   15    14    16    1
   16    14    17    1
   17    17    18    1
   18    17    19    1
   19    17    20    1
   20    20    21    1
   21    20    22    1
   22    20    23    1
   23    23    24    1
   24    23    25    1
   25    23    26    1
@<TRIPOS>SUBSTRUCTURE
       1 MOL1            1 RESIDUE      1      MOL     
@<SCITEGIC>MOL_PROPERTY
VM2 Rank
SciTegic.value.IntegerValue
175

@<SCITEGIC>MOL_PROPERTY
Conf_Id
SciTegic.value.IntegerValue
823

@<SCITEGIC>MOL_PROPERTY
Probability
SciTegic.value.DoubleValue
0.00

@<SCITEGIC>MOL_PROPERTY
Sum Probability
SciTegic.value.DoubleValue
100.00

@<SCITEGIC>MOL_PROPERTY
Delta G
SciTegic.value.DoubleValue
5.669

@<SCITEGIC>MOL_PROPERTY
G
SciTegic.value.DoubleValue
53.930

@<SCITEGIC>MOL_PROPERTY
E
SciTegic.value.DoubleValue
20.676

@<SCITEGIC>MOL_PROPERTY
-TS
SciTegic.value.DoubleValue
33.254

@<SCITEGIC>MOL_PROPERTY
U+W
SciTegic.value.DoubleValue
-0.785

@<SCITEGIC>MOL_PROPERTY
U
SciTegic.value.DoubleValue
52.899

@<SCITEGIC>MOL_PROPERTY
W
SciTegic.value.DoubleValue
-53.685

@<SCITEGIC>MOL_PROPERTY
W(PB)
SciTegic.value.DoubleValue
-55.876

@<SCITEGIC>MOL_PROPERTY
W(SA)
SciTegic.value.DoubleValue
2.192

@<SCITEGIC>MOL_PROPERTY
Valence
SciTegic.value.DoubleValue
5.554

@<SCITEGIC>MOL_PROPERTY
Coulomb
SciTegic.value.DoubleValue
47.031

@<SCITEGIC>MOL_PROPERTY
VdW
SciTegic.value.DoubleValue
0.315

@<SCITEGIC>MOL_PROPERTY
VdW6
SciTegic.value.DoubleValue
-9.413

@<SCITEGIC>MOL_PROPERTY
VdW12
SciTegic.value.DoubleValue
9.728

@<SCITEGIC>MOL_PROPERTY
Bond
SciTegic.value.DoubleValue
0.306

@<SCITEGIC>MOL_PROPERTY
Angle
SciTegic.value.DoubleValue
2.197

@<SCITEGIC>MOL_PROPERTY
Pdih
SciTegic.value.DoubleValue
3.051

@<SCITEGIC>MOL_PROPERTY
Idih
SciTegic.value.DoubleValue
0.000

@<SCITEGIC>MOL_PROPERTY
Tether
SciTegic.value.DoubleValue
0.000

@<TRIPOS>MOLECULE
guest-s14_vm2.mol2 : vm2 ligand conformer 176
          26          25           1
SMALL
USER_CHARGES
 
@<TRIPOS>ATOM
       1    C1      18.542915   19.299364   20.412064 C.3        1 MOL1        -0.2400
       2    H1      17.853267   19.875086   21.042986 H          1 MOL1         0.0971
       3    H2      19.012002   19.990725   19.699856 H          1 MOL1         0.0971
       4    H3      17.949923   18.576013   19.837429 H          1 MOL1         0.0971
       5    C2      19.606075   18.576542   21.265897 C.3        1 MOL1        -0.1385
       6    H4      20.261076   17.987797   20.608505 H          1 MOL1         0.0960
       7    H5      19.101939   17.862806   21.928605 H          1 MOL1         0.0960
       8    C3      20.455834   19.578801   22.083486 C.3        1 MOL1        -0.1409
       9    H6      20.913136   20.294290   21.386138 H          1 MOL1         0.0960
      10    H7      19.807088   20.176871   22.731522 H          1 MOL1         0.0960
      11    C4      21.595318   18.913657   22.900600 C.3        1 MOL1        -0.1409
      12    H8      22.241357   19.694813   23.324171 H          1 MOL1         0.0960
      13    H9      22.231538   18.357244   22.198456 H          1 MOL1         0.0960
      14    C5      21.156884   17.944531   24.033560 C.3        1 MOL1        -0.1409
      15    H10     20.334616   17.297440   23.707246 H          1 MOL1         0.0960
      16    H11     21.995835   17.260653   24.222776 H          1 MOL1         0.0960
      17    C6      20.813077   18.622116   25.387463 C.3        1 MOL1        -0.1450
      18    H12     21.685791   19.186535   25.741698 H          1 MOL1         0.0960
      19    H13     20.636589   17.839756   26.137511 H          1 MOL1         0.0960
      20    C7      19.593311   19.563316   25.369197 C.3        1 MOL1         0.0172
      21    H14     19.412481   19.938039   26.380307 H          1 MOL1         0.0934
      22    H15     19.797956   20.422420   24.726885 H          1 MOL1         0.0934
      23    N1      18.317586   18.900674   24.888733 N.4        1 MOL1        -0.5956
      24    H16     18.063970   18.097931   25.473930 H          1 MOL1         0.3624
      25    H17     18.414203   18.561381   23.926822 H          1 MOL1         0.3624
      26    H18     17.522303   19.548421   24.906085 H          1 MOL1         0.3624
@<TRIPOS>BOND
    1     1     2    1
    2     1     3    1
    3     1     4    1
    4     1     5    1
    5     5     6    1
    6     5     7    1
    7     5     8    1
    8     8     9    1
    9     8    10    1
   10     8    11    1
   11    11    12    1
   12    11    13    1
   13    11    14    1
   14    14    15    1
   15    14    16    1
   16    14    17    1
   17    17    18    1
   18    17    19    1
   19    17    20    1
   20    20    21    1
   21    20    22    1
   22    20    23    1
   23    23    24    1
   24    23    25    1
   25    23    26    1
@<TRIPOS>SUBSTRUCTURE
       1 MOL1            1 RESIDUE      1      MOL     
@<SCITEGIC>MOL_PROPERTY
VM2 Rank
SciTegic.value.IntegerValue
176

@<SCITEGIC>MOL_PROPERTY
Conf_Id
SciTegic.value.IntegerValue
505

@<SCITEGIC>MOL_PROPERTY
Probability
SciTegic.value.DoubleValue
0.00

@<SCITEGIC>MOL_PROPERTY
Sum Probability
SciTegic.value.DoubleValue
100.00

@<SCITEGIC>MOL_PROPERTY
Delta G
SciTegic.value.DoubleValue
5.675

@<SCITEGIC>MOL_PROPERTY
G
SciTegic.value.DoubleValue
53.936

@<SCITEGIC>MOL_PROPERTY
E
SciTegic.value.DoubleValue
20.682

@<SCITEGIC>MOL_PROPERTY
-TS
SciTegic.value.DoubleValue
33.254

@<SCITEGIC>MOL_PROPERTY
U+W
SciTegic.value.DoubleValue
-0.780

@<SCITEGIC>MOL_PROPERTY
U
SciTegic.value.DoubleValue
52.899

@<SCITEGIC>MOL_PROPERTY
W
SciTegic.value.DoubleValue
-53.679

@<SCITEGIC>MOL_PROPERTY
W(PB)
SciTegic.value.DoubleValue
-55.863

@<SCITEGIC>MOL_PROPERTY
W(SA)
SciTegic.value.DoubleValue
2.184

@<SCITEGIC>MOL_PROPERTY
Valence
SciTegic.value.DoubleValue
5.554

@<SCITEGIC>MOL_PROPERTY
Coulomb
SciTegic.value.DoubleValue
47.030

@<SCITEGIC>MOL_PROPERTY
VdW
SciTegic.value.DoubleValue
0.315

@<SCITEGIC>MOL_PROPERTY
VdW6
SciTegic.value.DoubleValue
-9.412

@<SCITEGIC>MOL_PROPERTY
VdW12
SciTegic.value.DoubleValue
9.727

@<SCITEGIC>MOL_PROPERTY
Bond
SciTegic.value.DoubleValue
0.306

@<SCITEGIC>MOL_PROPERTY
Angle
SciTegic.value.DoubleValue
2.197

@<SCITEGIC>MOL_PROPERTY
Pdih
SciTegic.value.DoubleValue
3.051

@<SCITEGIC>MOL_PROPERTY
Idih
SciTegic.value.DoubleValue
0.000

@<SCITEGIC>MOL_PROPERTY
Tether
SciTegic.value.DoubleValue
0.000

@<TRIPOS>MOLECULE
guest-s14_vm2.mol2 : vm2 ligand conformer 177
          26          25           1
SMALL
USER_CHARGES
 
@<TRIPOS>ATOM
       1    C1      18.361603   18.386112   20.812440 C.3        1 MOL1        -0.2400
       2    H1      17.947074   17.391180   20.604426 H          1 MOL1         0.0971
       3    H2      17.640002   18.927666   21.437849 H          1 MOL1         0.0971
       4    H3      18.453994   18.919200   19.857196 H          1 MOL1         0.0971
       5    C2      19.729381   18.270048   21.517314 C.3        1 MOL1        -0.1385
       6    H4      20.416197   17.691945   20.883394 H          1 MOL1         0.0960
       7    H5      19.610808   17.696626   22.444254 H          1 MOL1         0.0960
       8    C3      20.343242   19.661402   21.805682 C.3        1 MOL1        -0.1409
       9    H6      20.536381   20.152056   20.841622 H          1 MOL1         0.0960
      10    H7      19.624890   20.306393   22.328922 H          1 MOL1         0.0960
      11    C4      21.674328   19.590658   22.596816 C.3        1 MOL1        -0.1409
      12    H8      22.338063   20.376514   22.210337 H          1 MOL1         0.0960
      13    H9      22.190789   18.643775   22.387255 H          1 MOL1         0.0960
      14    C5      21.554114   19.802298   24.130574 C.3        1 MOL1        -0.1409
      15    H10     22.573447   19.813512   24.540796 H          1 MOL1         0.0960
      16    H11     21.141280   20.798748   24.340814 H          1 MOL1         0.0960
      17    C6      20.745781   18.725203   24.895758 C.3        1 MOL1        -0.1450
      18    H12     21.097081   18.699724   25.935903 H          1 MOL1         0.0960
      19    H13     20.950724   17.731268   24.477197 H          1 MOL1         0.0960
      20    C7      19.230491   19.005645   24.912034 C.3        1 MOL1         0.0172
      21    H14     19.042566   19.974262   25.382979 H          1 MOL1         0.0934
      22    H15     18.842810   19.041886   23.892105 H          1 MOL1         0.0934
      23    N1      18.442060   17.957633   25.670382 N.4        1 MOL1        -0.5956
      24    H16     18.735333   17.895360   26.650814 H          1 MOL1         0.3624
      25    H17     18.554518   17.024160   25.262014 H          1 MOL1         0.3624
      26    H18     17.437335   18.164396   25.672452 H          1 MOL1         0.3624
@<TRIPOS>BOND
    1     1     2    1
    2     1     3    1
    3     1     4    1
    4     1     5    1
    5     5     6    1
    6     5     7    1
    7     5     8    1
    8     8     9    1
    9     8    10    1
   10     8    11    1
   11    11    12    1
   12    11    13    1
   13    11    14    1
   14    14    15    1
   15    14    16    1
   16    14    17    1
   17    17    18    1
   18    17    19    1
   19    17    20    1
   20    20    21    1
   21    20    22    1
   22    20    23    1
   23    23    24    1
   24    23    25    1
   25    23    26    1
@<TRIPOS>SUBSTRUCTURE
       1 MOL1            1 RESIDUE      1      MOL     
@<SCITEGIC>MOL_PROPERTY
VM2 Rank
SciTegic.value.IntegerValue
177

@<SCITEGIC>MOL_PROPERTY
Conf_Id
SciTegic.value.IntegerValue
564

@<SCITEGIC>MOL_PROPERTY
Probability
SciTegic.value.DoubleValue
0.00

@<SCITEGIC>MOL_PROPERTY
Sum Probability
SciTegic.value.DoubleValue
100.00

@<SCITEGIC>MOL_PROPERTY
Delta G
SciTegic.value.DoubleValue
5.822

@<SCITEGIC>MOL_PROPERTY
G
SciTegic.value.DoubleValue
54.083

@<SCITEGIC>MOL_PROPERTY
E
SciTegic.value.DoubleValue
20.801

@<SCITEGIC>MOL_PROPERTY
-TS
SciTegic.value.DoubleValue
33.283

@<SCITEGIC>MOL_PROPERTY
U+W
SciTegic.value.DoubleValue
-0.661

@<SCITEGIC>MOL_PROPERTY
U
SciTegic.value.DoubleValue
53.727

@<SCITEGIC>MOL_PROPERTY
W
SciTegic.value.DoubleValue
-54.388

@<SCITEGIC>MOL_PROPERTY
W(PB)
SciTegic.value.DoubleValue
-56.588

@<SCITEGIC>MOL_PROPERTY
W(SA)
SciTegic.value.DoubleValue
2.200

@<SCITEGIC>MOL_PROPERTY
Valence
SciTegic.value.DoubleValue
7.057

@<SCITEGIC>MOL_PROPERTY
Coulomb
SciTegic.value.DoubleValue
46.463

@<SCITEGIC>MOL_PROPERTY
VdW
SciTegic.value.DoubleValue
0.207

@<SCITEGIC>MOL_PROPERTY
VdW6
SciTegic.value.DoubleValue
-9.121

@<SCITEGIC>MOL_PROPERTY
VdW12
SciTegic.value.DoubleValue
9.328

@<SCITEGIC>MOL_PROPERTY
Bond
SciTegic.value.DoubleValue
0.248

@<SCITEGIC>MOL_PROPERTY
Angle
SciTegic.value.DoubleValue
1.758

@<SCITEGIC>MOL_PROPERTY
Pdih
SciTegic.value.DoubleValue
5.050

@<SCITEGIC>MOL_PROPERTY
Idih
SciTegic.value.DoubleValue
0.000

@<SCITEGIC>MOL_PROPERTY
Tether
SciTegic.value.DoubleValue
0.000

@<TRIPOS>MOLECULE
guest-s14_vm2.mol2 : vm2 ligand conformer 178
          26          25           1
SMALL
USER_CHARGES
 
@<TRIPOS>ATOM
       1    C1      20.416932   20.280273   20.774523 C.3        1 MOL1        -0.2400
       2    H1      19.348905   20.479446   20.617954 H          1 MOL1         0.0971
       3    H2      20.700535   20.647298   21.768359 H          1 MOL1         0.0971
       4    H3      20.979953   20.866851   20.037101 H          1 MOL1         0.0971
       5    C2      20.732512   18.776519   20.621541 C.3        1 MOL1        -0.1385
       6    H4      21.789289   18.599454   20.865565 H          1 MOL1         0.0960
       7    H5      20.614126   18.498137   19.565013 H          1 MOL1         0.0960
       8    C3      19.837195   17.843899   21.476953 C.3        1 MOL1        -0.1409
       9    H6      18.789236   17.932913   21.159611 H          1 MOL1         0.0960
      10    H7      20.127043   16.809056   21.247835 H          1 MOL1         0.0960
      11    C4      19.958216   18.049467   23.009929 C.3        1 MOL1        -0.1409
      12    H8      20.969019   18.401544   23.247637 H          1 MOL1         0.0960
      13    H9      19.842090   17.072440   23.499062 H          1 MOL1         0.0960
      14    C5      18.889809   19.012035   23.589440 C.3        1 MOL1        -0.1409
      15    H10     19.031786   20.024964   23.194904 H          1 MOL1         0.0960
      16    H11     17.898506   18.688899   23.243163 H          1 MOL1         0.0960
      17    C6      18.857294   19.072250   25.138002 C.3        1 MOL1        -0.1450
      18    H12     18.658012   18.076844   25.556674 H          1 MOL1         0.0960
      19    H13     18.004458   19.698510   25.431814 H          1 MOL1         0.0960
      20    C7      20.123772   19.674166   25.781402 C.3        1 MOL1         0.0172
      21    H14     20.477212   20.519719   25.185240 H          1 MOL1         0.0934
      22    H15     19.873778   20.044139   26.779457 H          1 MOL1         0.0934
      23    N1      21.265271   18.690391   25.949210 N.4        1 MOL1        -0.5956
      24    H16     21.567363   18.301580   25.051756 H          1 MOL1         0.3624
      25    H17     21.000584   17.901214   26.547698 H          1 MOL1         0.3624
      26    H18     22.085599   19.130147   26.380519 H          1 MOL1         0.3624
@<TRIPOS>BOND
    1     1     2    1
    2     1     3    1
    3     1     4    1
    4     1     5    1
    5     5     6    1
    6     5     7    1
    7     5     8    1
    8     8     9    1
    9     8    10    1
   10     8    11    1
   11    11    12    1
   12    11    13    1
   13    11    14    1
   14    14    15    1
   15    14    16    1
   16    14    17    1
   17    17    18    1
   18    17    19    1
   19    17    20    1
   20    20    21    1
   21    20    22    1
   22    20    23    1
   23    23    24    1
   24    23    25    1
   25    23    26    1
@<TRIPOS>SUBSTRUCTURE
       1 MOL1            1 RESIDUE      1      MOL     
@<SCITEGIC>MOL_PROPERTY
VM2 Rank
SciTegic.value.IntegerValue
178

@<SCITEGIC>MOL_PROPERTY
Conf_Id
SciTegic.value.IntegerValue
272

@<SCITEGIC>MOL_PROPERTY
Probability
SciTegic.value.DoubleValue
0.00

@<SCITEGIC>MOL_PROPERTY
Sum Probability
SciTegic.value.DoubleValue
100.00

@<SCITEGIC>MOL_PROPERTY
Delta G
SciTegic.value.DoubleValue
5.917

@<SCITEGIC>MOL_PROPERTY
G
SciTegic.value.DoubleValue
54.179

@<SCITEGIC>MOL_PROPERTY
E
SciTegic.value.DoubleValue
21.472

@<SCITEGIC>MOL_PROPERTY
-TS
SciTegic.value.DoubleValue
32.707

@<SCITEGIC>MOL_PROPERTY
U+W
SciTegic.value.DoubleValue
0.010

@<SCITEGIC>MOL_PROPERTY
U
SciTegic.value.DoubleValue
54.160

@<SCITEGIC>MOL_PROPERTY
W
SciTegic.value.DoubleValue
-54.150

@<SCITEGIC>MOL_PROPERTY
W(PB)
SciTegic.value.DoubleValue
-56.398

@<SCITEGIC>MOL_PROPERTY
W(SA)
SciTegic.value.DoubleValue
2.248

@<SCITEGIC>MOL_PROPERTY
Valence
SciTegic.value.DoubleValue
6.714

@<SCITEGIC>MOL_PROPERTY
Coulomb
SciTegic.value.DoubleValue
46.802

@<SCITEGIC>MOL_PROPERTY
VdW
SciTegic.value.DoubleValue
0.643

@<SCITEGIC>MOL_PROPERTY
VdW6
SciTegic.value.DoubleValue
-8.862

@<SCITEGIC>MOL_PROPERTY
VdW12
SciTegic.value.DoubleValue
9.505

@<SCITEGIC>MOL_PROPERTY
Bond
SciTegic.value.DoubleValue
0.281

@<SCITEGIC>MOL_PROPERTY
Angle
SciTegic.value.DoubleValue
1.744

@<SCITEGIC>MOL_PROPERTY
Pdih
SciTegic.value.DoubleValue
4.688

@<SCITEGIC>MOL_PROPERTY
Idih
SciTegic.value.DoubleValue
0.000

@<SCITEGIC>MOL_PROPERTY
Tether
SciTegic.value.DoubleValue
0.000

@<TRIPOS>MOLECULE
guest-s14_vm2.mol2 : vm2 ligand conformer 179
          26          25           1
SMALL
USER_CHARGES
 
@<TRIPOS>ATOM
       1    C1      18.512211   18.581878   20.793732 C.3        1 MOL1        -0.2400
       2    H1      18.146541   17.738626   21.393525 H          1 MOL1         0.0971
       3    H2      18.139997   19.512945   21.238363 H          1 MOL1         0.0971
       4    H3      18.067563   18.496166   19.793730 H          1 MOL1         0.0971
       5    C2      20.055058   18.571249   20.698150 C.3        1 MOL1        -0.1385
       6    H4      20.395729   19.430743   20.103994 H          1 MOL1         0.0960
       7    H5      20.368328   17.673635   20.146781 H          1 MOL1         0.0960
       8    C3      20.756095   18.576274   22.077386 C.3        1 MOL1        -0.1409
       9    H6      20.410842   17.712002   22.657789 H          1 MOL1         0.0960
      10    H7      21.833834   18.428758   21.922632 H          1 MOL1         0.0960
      11    C4      20.541711   19.891645   22.868741 C.3        1 MOL1        -0.1409
      12    H8      19.476018   20.075706   23.044940 H          1 MOL1         0.0960
      13    H9      20.886889   20.732315   22.251171 H          1 MOL1         0.0960
      14    C5      21.306962   19.933547   24.215703 C.3        1 MOL1        -0.1409
      15    H10     22.384960   19.874885   24.011480 H          1 MOL1         0.0960
      16    H11     21.144794   20.916527   24.679178 H          1 MOL1         0.0960
      17    C6      20.937172   18.831636   25.244998 C.3        1 MOL1        -0.1450
      18    H12     21.561328   18.984413   26.135411 H          1 MOL1         0.0960
      19    H13     21.202857   17.836484   24.866333 H          1 MOL1         0.0960
      20    C7      19.462347   18.853110   25.698116 C.3        1 MOL1         0.0172
      21    H14     19.375800   18.345168   26.662456 H          1 MOL1         0.0934
      22    H15     19.131786   19.887017   25.828492 H          1 MOL1         0.0934
      23    N1      18.509443   18.159661   24.744175 N.4        1 MOL1        -0.5956
      24    H16     18.717487   17.158917   24.664675 H          1 MOL1         0.3624
      25    H17     18.566339   18.558676   23.801972 H          1 MOL1         0.3624
      26    H18     17.535059   18.238873   25.055677 H          1 MOL1         0.3624
@<TRIPOS>BOND
    1     1     2    1
    2     1     3    1
    3     1     4    1
    4     1     5    1
    5     5     6    1
    6     5     7    1
    7     5     8    1
    8     8     9    1
    9     8    10    1
   10     8    11    1
   11    11    12    1
   12    11    13    1
   13    11    14    1
   14    14    15    1
   15    14    16    1
   16    14    17    1
   17    17    18    1
   18    17    19    1
   19    17    20    1
   20    20    21    1
   21    20    22    1
   22    20    23    1
   23    23    24    1
   24    23    25    1
   25    23    26    1
@<TRIPOS>SUBSTRUCTURE
       1 MOL1            1 RESIDUE      1      MOL     
@<SCITEGIC>MOL_PROPERTY
VM2 Rank
SciTegic.value.IntegerValue
179

@<SCITEGIC>MOL_PROPERTY
Conf_Id
SciTegic.value.IntegerValue
271

@<SCITEGIC>MOL_PROPERTY
Probability
SciTegic.value.DoubleValue
0.00

@<SCITEGIC>MOL_PROPERTY
Sum Probability
SciTegic.value.DoubleValue
100.00

@<SCITEGIC>MOL_PROPERTY
Delta G
SciTegic.value.DoubleValue
6.011

@<SCITEGIC>MOL_PROPERTY
G
SciTegic.value.DoubleValue
54.273

@<SCITEGIC>MOL_PROPERTY
E
SciTegic.value.DoubleValue
20.896

@<SCITEGIC>MOL_PROPERTY
-TS
SciTegic.value.DoubleValue
33.377

@<SCITEGIC>MOL_PROPERTY
U+W
SciTegic.value.DoubleValue
-0.566

@<SCITEGIC>MOL_PROPERTY
U
SciTegic.value.DoubleValue
52.431

@<SCITEGIC>MOL_PROPERTY
W
SciTegic.value.DoubleValue
-52.997

@<SCITEGIC>MOL_PROPERTY
W(PB)
SciTegic.value.DoubleValue
-55.181

@<SCITEGIC>MOL_PROPERTY
W(SA)
SciTegic.value.DoubleValue
2.184

@<SCITEGIC>MOL_PROPERTY
Valence
SciTegic.value.DoubleValue
4.698

@<SCITEGIC>MOL_PROPERTY
Coulomb
SciTegic.value.DoubleValue
47.457

@<SCITEGIC>MOL_PROPERTY
VdW
SciTegic.value.DoubleValue
0.277

@<SCITEGIC>MOL_PROPERTY
VdW6
SciTegic.value.DoubleValue
-9.683

@<SCITEGIC>MOL_PROPERTY
VdW12
SciTegic.value.DoubleValue
9.959

@<SCITEGIC>MOL_PROPERTY
Bond
SciTegic.value.DoubleValue
0.267

@<SCITEGIC>MOL_PROPERTY
Angle
SciTegic.value.DoubleValue
1.656

@<SCITEGIC>MOL_PROPERTY
Pdih
SciTegic.value.DoubleValue
2.775

@<SCITEGIC>MOL_PROPERTY
Idih
SciTegic.value.DoubleValue
0.000

@<SCITEGIC>MOL_PROPERTY
Tether
SciTegic.value.DoubleValue
0.000

@<TRIPOS>MOLECULE
guest-s14_vm2.mol2 : vm2 ligand conformer 180
          26          25           1
SMALL
USER_CHARGES
 
@<TRIPOS>ATOM
       1    C1      20.071583   18.224664   20.219259 C.3        1 MOL1        -0.2400
       2    H1      20.371091   17.320480   19.673724 H          1 MOL1         0.0971
       3    H2      19.010939   18.117161   20.478576 H          1 MOL1         0.0971
       4    H3      20.175220   19.078475   19.537181 H          1 MOL1         0.0971
       5    C2      20.945696   18.410869   21.479760 C.3        1 MOL1        -0.1385
       6    H4      22.003034   18.385482   21.181014 H          1 MOL1         0.0960
       7    H5      20.804864   17.555584   22.151666 H          1 MOL1         0.0960
       8    C3      20.678725   19.744266   22.225650 C.3        1 MOL1        -0.1409
       9    H6      21.369752   19.825208   23.071672 H          1 MOL1         0.0960
      10    H7      20.947925   20.572441   21.555721 H          1 MOL1         0.0960
      11    C4      19.216109   19.966625   22.701972 C.3        1 MOL1        -0.1409
      12    H8      18.566535   19.999136   21.817398 H          1 MOL1         0.0960
      13    H9      19.132249   20.964903   23.152766 H          1 MOL1         0.0960
      14    C5      18.647030   18.911112   23.689764 C.3        1 MOL1        -0.1409
      15    H10     17.553575   18.915424   23.582289 H          1 MOL1         0.0960
      16    H11     18.954299   17.897450   23.407366 H          1 MOL1         0.0960
      17    C6      18.955347   19.180507   25.187077 C.3        1 MOL1        -0.1450
      18    H12     18.416957   18.443496   25.797590 H          1 MOL1         0.0960
      19    H13     18.547078   20.160118   25.468802 H          1 MOL1         0.0960
      20    C7      20.446259   19.141329   25.572793 C.3        1 MOL1         0.0172
      21    H14     20.985460   19.933727   25.049553 H          1 MOL1         0.0934
      22    H15     20.545582   19.321707   26.646594 H          1 MOL1         0.0934
      23    N1      21.120251   17.819627   25.264726 N.4        1 MOL1        -0.5956
      24    H16     21.084003   17.608199   24.263392 H          1 MOL1         0.3624
      25    H17     20.671580   17.041385   25.758879 H          1 MOL1         0.3624
      26    H18     22.107970   17.821938   25.541773 H          1 MOL1         0.3624
@<TRIPOS>BOND
    1     1     2    1
    2     1     3    1
    3     1     4    1
    4     1     5    1
    5     5     6    1
    6     5     7    1
    7     5     8    1
    8     8     9    1
    9     8    10    1
   10     8    11    1
   11    11    12    1
   12    11    13    1
   13    11    14    1
   14    14    15    1
   15    14    16    1
   16    14    17    1
   17    17    18    1
   18    17    19    1
   19    17    20    1
   20    20    21    1
   21    20    22    1
   22    20    23    1
   23    23    24    1
   24    23    25    1
   25    23    26    1
@<TRIPOS>SUBSTRUCTURE
       1 MOL1            1 RESIDUE      1      MOL     
@<SCITEGIC>MOL_PROPERTY
VM2 Rank
SciTegic.value.IntegerValue
180

@<SCITEGIC>MOL_PROPERTY
Conf_Id
SciTegic.value.IntegerValue
575

@<SCITEGIC>MOL_PROPERTY
Probability
SciTegic.value.DoubleValue
0.00

@<SCITEGIC>MOL_PROPERTY
Sum Probability
SciTegic.value.DoubleValue
100.00

@<SCITEGIC>MOL_PROPERTY
Delta G
SciTegic.value.DoubleValue
6.094

@<SCITEGIC>MOL_PROPERTY
G
SciTegic.value.DoubleValue
54.355

@<SCITEGIC>MOL_PROPERTY
E
SciTegic.value.DoubleValue
20.889

@<SCITEGIC>MOL_PROPERTY
-TS
SciTegic.value.DoubleValue
33.466

@<SCITEGIC>MOL_PROPERTY
U+W
SciTegic.value.DoubleValue
-0.573

@<SCITEGIC>MOL_PROPERTY
U
SciTegic.value.DoubleValue
53.513

@<SCITEGIC>MOL_PROPERTY
W
SciTegic.value.DoubleValue
-54.086

@<SCITEGIC>MOL_PROPERTY
W(PB)
SciTegic.value.DoubleValue
-56.256

@<SCITEGIC>MOL_PROPERTY
W(SA)
SciTegic.value.DoubleValue
2.170

@<SCITEGIC>MOL_PROPERTY
Valence
SciTegic.value.DoubleValue
6.042

@<SCITEGIC>MOL_PROPERTY
Coulomb
SciTegic.value.DoubleValue
47.147

@<SCITEGIC>MOL_PROPERTY
VdW
SciTegic.value.DoubleValue
0.324

@<SCITEGIC>MOL_PROPERTY
VdW6
SciTegic.value.DoubleValue
-10.118

@<SCITEGIC>MOL_PROPERTY
VdW12
SciTegic.value.DoubleValue
10.442

@<SCITEGIC>MOL_PROPERTY
Bond
SciTegic.value.DoubleValue
0.350

@<SCITEGIC>MOL_PROPERTY
Angle
SciTegic.value.DoubleValue
2.482

@<SCITEGIC>MOL_PROPERTY
Pdih
SciTegic.value.DoubleValue
3.210

@<SCITEGIC>MOL_PROPERTY
Idih
SciTegic.value.DoubleValue
0.000

@<SCITEGIC>MOL_PROPERTY
Tether
SciTegic.value.DoubleValue
0.000

@<TRIPOS>MOLECULE
guest-s14_vm2.mol2 : vm2 ligand conformer 181
          26          25           1
SMALL
USER_CHARGES
 
@<TRIPOS>ATOM
       1    C1      18.416384   18.560369   21.357237 C.3        1 MOL1        -0.2400
       2    H1      17.773073   17.675139   21.271748 H          1 MOL1         0.0971
       3    H2      18.311933   18.950206   22.375209 H          1 MOL1         0.0971
       4    H3      18.030356   19.320154   20.665375 H          1 MOL1         0.0971
       5    C2      19.881325   18.199746   21.016588 C.3        1 MOL1        -0.1385
       6    H4      19.900021   17.812913   19.988044 H          1 MOL1         0.0960
       7    H5      20.237164   17.376508   21.650472 H          1 MOL1         0.0960
       8    C3      20.849745   19.406460   21.103528 C.3        1 MOL1        -0.1409
       9    H6      21.614356   19.278142   20.324857 H          1 MOL1         0.0960
      10    H7      20.322424   20.334767   20.844152 H          1 MOL1         0.0960
      11    C4      21.596014   19.577220   22.454678 C.3        1 MOL1        -0.1409
      12    H8      22.322661   20.390940   22.323177 H          1 MOL1         0.0960
      13    H9      22.196213   18.682380   22.669472 H          1 MOL1         0.0960
      14    C5      20.704990   19.932010   23.672328 C.3        1 MOL1        -0.1409
      15    H10     21.265957   20.614913   24.325526 H          1 MOL1         0.0960
      16    H11     19.820212   20.493019   23.342774 H          1 MOL1         0.0960
      17    C6      20.293632   18.699727   24.513107 C.3        1 MOL1        -0.1450
      18    H12     21.193457   18.208464   24.906585 H          1 MOL1         0.0960
      19    H13     19.778588   17.960752   23.889524 H          1 MOL1         0.0960
      20    C7      19.379781   19.100629   25.684210 C.3        1 MOL1         0.0172
      21    H14     19.898389   19.816681   26.327459 H          1 MOL1         0.0934
      22    H15     18.474804   19.577472   25.298120 H          1 MOL1         0.0934
      23    N1      18.959129   17.922839   26.539325 N.4        1 MOL1        -0.5956
      24    H16     18.440414   17.223349   25.998290 H          1 MOL1         0.3624
      25    H17     18.351564   18.212313   27.313571 H          1 MOL1         0.3624
      26    H18     19.765575   17.445786   26.955556 H          1 MOL1         0.3624
@<TRIPOS>BOND
    1     1     2    1
    2     1     3    1
    3     1     4    1
    4     1     5    1
    5     5     6    1
    6     5     7    1
    7     5     8    1
    8     8     9    1
    9     8    10    1
   10     8    11    1
   11    11    12    1
   12    11    13    1
   13    11    14    1
   14    14    15    1
   15    14    16    1
   16    14    17    1
   17    17    18    1
   18    17    19    1
   19    17    20    1
   20    20    21    1
   21    20    22    1
   22    20    23    1
   23    23    24    1
   24    23    25    1
   25    23    26    1
@<TRIPOS>SUBSTRUCTURE
       1 MOL1            1 RESIDUE      1      MOL     
@<SCITEGIC>MOL_PROPERTY
VM2 Rank
SciTegic.value.IntegerValue
181

@<SCITEGIC>MOL_PROPERTY
Conf_Id
SciTegic.value.IntegerValue
102

@<SCITEGIC>MOL_PROPERTY
Probability
SciTegic.value.DoubleValue
0.00

@<SCITEGIC>MOL_PROPERTY
Sum Probability
SciTegic.value.DoubleValue
100.00

@<SCITEGIC>MOL_PROPERTY
Delta G
SciTegic.value.DoubleValue
6.216

@<SCITEGIC>MOL_PROPERTY
G
SciTegic.value.DoubleValue
54.478

@<SCITEGIC>MOL_PROPERTY
E
SciTegic.value.DoubleValue
21.257

@<SCITEGIC>MOL_PROPERTY
-TS
SciTegic.value.DoubleValue
33.220

@<SCITEGIC>MOL_PROPERTY
U+W
SciTegic.value.DoubleValue
-0.204

@<SCITEGIC>MOL_PROPERTY
U
SciTegic.value.DoubleValue
53.883

@<SCITEGIC>MOL_PROPERTY
W
SciTegic.value.DoubleValue
-54.088

@<SCITEGIC>MOL_PROPERTY
W(PB)
SciTegic.value.DoubleValue
-56.325

@<SCITEGIC>MOL_PROPERTY
W(SA)
SciTegic.value.DoubleValue
2.237

@<SCITEGIC>MOL_PROPERTY
Valence
SciTegic.value.DoubleValue
7.743

@<SCITEGIC>MOL_PROPERTY
Coulomb
SciTegic.value.DoubleValue
45.678

@<SCITEGIC>MOL_PROPERTY
VdW
SciTegic.value.DoubleValue
0.462

@<SCITEGIC>MOL_PROPERTY
VdW6
SciTegic.value.DoubleValue
-8.645

@<SCITEGIC>MOL_PROPERTY
VdW12
SciTegic.value.DoubleValue
9.107

@<SCITEGIC>MOL_PROPERTY
Bond
SciTegic.value.DoubleValue
0.266

@<SCITEGIC>MOL_PROPERTY
Angle
SciTegic.value.DoubleValue
1.932

@<SCITEGIC>MOL_PROPERTY
Pdih
SciTegic.value.DoubleValue
5.545

@<SCITEGIC>MOL_PROPERTY
Idih
SciTegic.value.DoubleValue
0.000

@<SCITEGIC>MOL_PROPERTY
Tether
SciTegic.value.DoubleValue
0.000

@<TRIPOS>MOLECULE
guest-s14_vm2.mol2 : vm2 ligand conformer 182
          26          25           1
SMALL
USER_CHARGES
 
@<TRIPOS>ATOM
       1    C1      20.934786   19.105298   19.757376 C.3        1 MOL1        -0.2400
       2    H1      20.888000   18.107357   19.302262 H          1 MOL1         0.0971
       3    H2      20.197066   19.744971   19.255564 H          1 MOL1         0.0971
       4    H3      21.931471   19.519855   19.557955 H          1 MOL1         0.0971
       5    C2      20.667137   19.036385   21.275820 C.3        1 MOL1        -0.1385
       6    H4      20.759935   20.045368   21.699190 H          1 MOL1         0.0960
       7    H5      21.436499   18.413550   21.752851 H          1 MOL1         0.0960
       8    C3      19.265030   18.461597   21.582266 C.3        1 MOL1        -0.1409
       9    H6      18.497448   19.117819   21.149305 H          1 MOL1         0.0960
      10    H7      19.158778   17.492290   21.075839 H          1 MOL1         0.0960
      11    C4      18.978054   18.258072   23.092182 C.3        1 MOL1        -0.1409
      12    H8      19.689746   17.533157   23.504651 H          1 MOL1         0.0960
      13    H9      17.988003   17.789920   23.181665 H          1 MOL1         0.0960
      14    C5      18.971376   19.569829   23.923757 C.3        1 MOL1        -0.1409
      15    H10     18.683365   20.405598   23.271247 H          1 MOL1         0.0960
      16    H11     18.181891   19.513731   24.686090 H          1 MOL1         0.0960
      17    C6      20.316984   19.903833   24.621975 C.3        1 MOL1        -0.1450
      18    H12     20.387721   20.994116   24.731556 H          1 MOL1         0.0960
      19    H13     21.170387   19.606135   24.001124 H          1 MOL1         0.0960
      20    C7      20.454296   19.289066   26.030879 C.3        1 MOL1         0.0172
      21    H14     21.377306   19.649864   26.492797 H          1 MOL1         0.0934
      22    H15     19.615917   19.613593   26.653065 H          1 MOL1         0.0934
      23    N1      20.493337   17.774921   26.056746 N.4        1 MOL1        -0.5956
      24    H16     19.637435   17.371792   25.663054 H          1 MOL1         0.3624
      25    H17     20.586265   17.413070   27.012136 H          1 MOL1         0.3624
      26    H18     21.282901   17.405679   25.517447 H          1 MOL1         0.3624
@<TRIPOS>BOND
    1     1     2    1
    2     1     3    1
    3     1     4    1
    4     1     5    1
    5     5     6    1
    6     5     7    1
    7     5     8    1
    8     8     9    1
    9     8    10    1
   10     8    11    1
   11    11    12    1
   12    11    13    1
   13    11    14    1
   14    14    15    1
   15    14    16    1
   16    14    17    1
   17    17    18    1
   18    17    19    1
   19    17    20    1
   20    20    21    1
   21    20    22    1
   22    20    23    1
   23    23    24    1
   24    23    25    1
   25    23    26    1
@<TRIPOS>SUBSTRUCTURE
       1 MOL1            1 RESIDUE      1      MOL     
@<SCITEGIC>MOL_PROPERTY
VM2 Rank
SciTegic.value.IntegerValue
182

@<SCITEGIC>MOL_PROPERTY
Conf_Id
SciTegic.value.IntegerValue
246

@<SCITEGIC>MOL_PROPERTY
Probability
SciTegic.value.DoubleValue
0.00

@<SCITEGIC>MOL_PROPERTY
Sum Probability
SciTegic.value.DoubleValue
100.00

@<SCITEGIC>MOL_PROPERTY
Delta G
SciTegic.value.DoubleValue
6.230

@<SCITEGIC>MOL_PROPERTY
G
SciTegic.value.DoubleValue
54.492

@<SCITEGIC>MOL_PROPERTY
E
SciTegic.value.DoubleValue
21.518

@<SCITEGIC>MOL_PROPERTY
-TS
SciTegic.value.DoubleValue
32.973

@<SCITEGIC>MOL_PROPERTY
U+W
SciTegic.value.DoubleValue
0.057

@<SCITEGIC>MOL_PROPERTY
U
SciTegic.value.DoubleValue
54.162

@<SCITEGIC>MOL_PROPERTY
W
SciTegic.value.DoubleValue
-54.106

@<SCITEGIC>MOL_PROPERTY
W(PB)
SciTegic.value.DoubleValue
-56.351

@<SCITEGIC>MOL_PROPERTY
W(SA)
SciTegic.value.DoubleValue
2.245

@<SCITEGIC>MOL_PROPERTY
Valence
SciTegic.value.DoubleValue
7.003

@<SCITEGIC>MOL_PROPERTY
Coulomb
SciTegic.value.DoubleValue
46.401

@<SCITEGIC>MOL_PROPERTY
VdW
SciTegic.value.DoubleValue
0.758

@<SCITEGIC>MOL_PROPERTY
VdW6
SciTegic.value.DoubleValue
-8.752

@<SCITEGIC>MOL_PROPERTY
VdW12
SciTegic.value.DoubleValue
9.510

@<SCITEGIC>MOL_PROPERTY
Bond
SciTegic.value.DoubleValue
0.280

@<SCITEGIC>MOL_PROPERTY
Angle
SciTegic.value.DoubleValue
1.397

@<SCITEGIC>MOL_PROPERTY
Pdih
SciTegic.value.DoubleValue
5.327

@<SCITEGIC>MOL_PROPERTY
Idih
SciTegic.value.DoubleValue
0.000

@<SCITEGIC>MOL_PROPERTY
Tether
SciTegic.value.DoubleValue
0.000

@<TRIPOS>MOLECULE
guest-s14_vm2.mol2 : vm2 ligand conformer 183
          26          25           1
SMALL
USER_CHARGES
 
@<TRIPOS>ATOM
       1    C1      20.678400   20.340964   21.116335 C.3        1 MOL1        -0.2400
       2    H1      21.379044   20.933663   20.514104 H          1 MOL1         0.0971
       3    H2      19.673076   20.755167   20.965938 H          1 MOL1         0.0971
       4    H3      20.957934   20.473921   22.168435 H          1 MOL1         0.0971
       5    C2      20.735792   18.854254   20.702459 C.3        1 MOL1        -0.1385
       6    H4      21.735409   18.453441   20.921016 H          1 MOL1         0.0960
       7    H5      20.613808   18.787567   19.612306 H          1 MOL1         0.0960
       8    C3      19.659757   17.961733   21.372344 C.3        1 MOL1        -0.1409
       9    H6      18.655593   18.291073   21.071916 H          1 MOL1         0.0960
      10    H7      19.772253   16.947253   20.965421 H          1 MOL1         0.0960
      11    C4      19.760465   17.876276   22.917538 C.3        1 MOL1        -0.1409
      12    H8      20.806280   17.991936   23.220501 H          1 MOL1         0.0960
      13    H9      19.467162   16.863717   23.227433 H          1 MOL1         0.0960
      14    C5      18.838298   18.886973   23.648566 C.3        1 MOL1        -0.1409
      15    H10     19.045473   19.915834   23.331225 H          1 MOL1         0.0960
      16    H11     17.803051   18.683044   23.342013 H          1 MOL1         0.0960
      17    C6      18.907678   18.798023   25.194694 C.3        1 MOL1        -0.1450
      18    H12     18.957276   17.750682   25.520799 H          1 MOL1         0.0960
      19    H13     17.967467   19.194982   25.600086 H          1 MOL1         0.0960
      20    C7      20.056156   19.612420   25.827465 C.3        1 MOL1         0.0172
      21    H14     20.020090   20.642282   25.462269 H          1 MOL1         0.0934
      22    H15     19.920036   19.634601   26.912122 H          1 MOL1         0.0934
      23    N1      21.444453   19.068356   25.561599 N.4        1 MOL1        -0.5956
      24    H16     21.544514   18.103811   25.894107 H          1 MOL1         0.3624
      25    H17     22.166633   19.624683   26.032053 H          1 MOL1         0.3624
      26    H18     21.664602   19.073213   24.561520 H          1 MOL1         0.3624
@<TRIPOS>BOND
    1     1     2    1
    2     1     3    1
    3     1     4    1
    4     1     5    1
    5     5     6    1
    6     5     7    1
    7     5     8    1
    8     8     9    1
    9     8    10    1
   10     8    11    1
   11    11    12    1
   12    11    13    1
   13    11    14    1
   14    14    15    1
   15    14    16    1
   16    14    17    1
   17    17    18    1
   18    17    19    1
   19    17    20    1
   20    20    21    1
   21    20    22    1
   22    20    23    1
   23    23    24    1
   24    23    25    1
   25    23    26    1
@<TRIPOS>SUBSTRUCTURE
       1 MOL1            1 RESIDUE      1      MOL     
@<SCITEGIC>MOL_PROPERTY
VM2 Rank
SciTegic.value.IntegerValue
183

@<SCITEGIC>MOL_PROPERTY
Conf_Id
SciTegic.value.IntegerValue
1317

@<SCITEGIC>MOL_PROPERTY
Probability
SciTegic.value.DoubleValue
0.00

@<SCITEGIC>MOL_PROPERTY
Sum Probability
SciTegic.value.DoubleValue
100.00

@<SCITEGIC>MOL_PROPERTY
Delta G
SciTegic.value.DoubleValue
6.234

@<SCITEGIC>MOL_PROPERTY
G
SciTegic.value.DoubleValue
54.496

@<SCITEGIC>MOL_PROPERTY
E
SciTegic.value.DoubleValue
22.059

@<SCITEGIC>MOL_PROPERTY
-TS
SciTegic.value.DoubleValue
32.437

@<SCITEGIC>MOL_PROPERTY
U+W
SciTegic.value.DoubleValue
0.597

@<SCITEGIC>MOL_PROPERTY
U
SciTegic.value.DoubleValue
54.533

@<SCITEGIC>MOL_PROPERTY
W
SciTegic.value.DoubleValue
-53.936

@<SCITEGIC>MOL_PROPERTY
W(PB)
SciTegic.value.DoubleValue
-56.143

@<SCITEGIC>MOL_PROPERTY
W(SA)
SciTegic.value.DoubleValue
2.207

@<SCITEGIC>MOL_PROPERTY
Valence
SciTegic.value.DoubleValue
6.949

@<SCITEGIC>MOL_PROPERTY
Coulomb
SciTegic.value.DoubleValue
46.991

@<SCITEGIC>MOL_PROPERTY
VdW
SciTegic.value.DoubleValue
0.593

@<SCITEGIC>MOL_PROPERTY
VdW6
SciTegic.value.DoubleValue
-8.892

@<SCITEGIC>MOL_PROPERTY
VdW12
SciTegic.value.DoubleValue
9.485

@<SCITEGIC>MOL_PROPERTY
Bond
SciTegic.value.DoubleValue
0.283

@<SCITEGIC>MOL_PROPERTY
Angle
SciTegic.value.DoubleValue
1.766

@<SCITEGIC>MOL_PROPERTY
Pdih
SciTegic.value.DoubleValue
4.900

@<SCITEGIC>MOL_PROPERTY
Idih
SciTegic.value.DoubleValue
0.000

@<SCITEGIC>MOL_PROPERTY
Tether
SciTegic.value.DoubleValue
0.000

@<TRIPOS>MOLECULE
guest-s14_vm2.mol2 : vm2 ligand conformer 184
          26          25           1
SMALL
USER_CHARGES
 
@<TRIPOS>ATOM
       1    C1      20.808710   19.761935   20.389473 C.3        1 MOL1        -0.2400
       2    H1      20.006798   20.507845   20.316297 H          1 MOL1         0.0971
       3    H2      21.424965   19.995769   21.266497 H          1 MOL1         0.0971
       4    H3      21.446649   19.866997   19.502425 H          1 MOL1         0.0971
       5    C2      20.232552   18.331557   20.473455 C.3        1 MOL1        -0.1385
       6    H4      21.056435   17.613499   20.588901 H          1 MOL1         0.0960
       7    H5      19.749957   18.089203   19.516320 H          1 MOL1         0.0960
       8    C3      19.200883   18.124626   21.611832 C.3        1 MOL1        -0.1409
       9    H6      18.325419   18.768810   21.451039 H          1 MOL1         0.0960
      10    H7      18.827723   17.093885   21.535884 H          1 MOL1         0.0960
      11    C4      19.766607   18.330874   23.041105 C.3        1 MOL1        -0.1409
      12    H8      20.841267   18.102955   23.054601 H          1 MOL1         0.0960
      13    H9      19.281526   17.601710   23.702011 H          1 MOL1         0.0960
      14    C5      19.504498   19.751128   23.603184 C.3        1 MOL1        -0.1409
      15    H10     19.795223   20.503168   22.860086 H          1 MOL1         0.0960
      16    H11     18.425171   19.886024   23.758551 H          1 MOL1         0.0960
      17    C6      20.255988   20.065370   24.921969 C.3        1 MOL1        -0.1450
      18    H12     20.060197   21.114882   25.178909 H          1 MOL1         0.0960
      19    H13     21.340981   19.989658   24.770668 H          1 MOL1         0.0960
      20    C7      19.828164   19.199977   26.125484 C.3        1 MOL1         0.0172
      21    H14     20.100061   19.716834   27.049829 H          1 MOL1         0.0934
      22    H15     18.743183   19.065616   26.118901 H          1 MOL1         0.0934
      23    N1      20.483598   17.833533   26.174499 N.4        1 MOL1        -0.5956
      24    H16     20.171258   17.291148   26.987300 H          1 MOL1         0.3624
      25    H17     21.504372   17.904721   26.237567 H          1 MOL1         0.3624
      26    H18     20.269592   17.279500   25.340625 H          1 MOL1         0.3624
@<TRIPOS>BOND
    1     1     2    1
    2     1     3    1
    3     1     4    1
    4     1     5    1
    5     5     6    1
    6     5     7    1
    7     5     8    1
    8     8     9    1
    9     8    10    1
   10     8    11    1
   11    11    12    1
   12    11    13    1
   13    11    14    1
   14    14    15    1
   15    14    16    1
   16    14    17    1
   17    17    18    1
   18    17    19    1
   19    17    20    1
   20    20    21    1
   21    20    22    1
   22    20    23    1
   23    23    24    1
   24    23    25    1
   25    23    26    1
@<TRIPOS>SUBSTRUCTURE
       1 MOL1            1 RESIDUE      1      MOL     
@<SCITEGIC>MOL_PROPERTY
VM2 Rank
SciTegic.value.IntegerValue
184

@<SCITEGIC>MOL_PROPERTY
Conf_Id
SciTegic.value.IntegerValue
1254

@<SCITEGIC>MOL_PROPERTY
Probability
SciTegic.value.DoubleValue
0.00

@<SCITEGIC>MOL_PROPERTY
Sum Probability
SciTegic.value.DoubleValue
100.00

@<SCITEGIC>MOL_PROPERTY
Delta G
SciTegic.value.DoubleValue
6.266

@<SCITEGIC>MOL_PROPERTY
G
SciTegic.value.DoubleValue
54.528

@<SCITEGIC>MOL_PROPERTY
E
SciTegic.value.DoubleValue
21.581

@<SCITEGIC>MOL_PROPERTY
-TS
SciTegic.value.DoubleValue
32.947

@<SCITEGIC>MOL_PROPERTY
U+W
SciTegic.value.DoubleValue
0.119

@<SCITEGIC>MOL_PROPERTY
U
SciTegic.value.DoubleValue
54.015

@<SCITEGIC>MOL_PROPERTY
W
SciTegic.value.DoubleValue
-53.895

@<SCITEGIC>MOL_PROPERTY
W(PB)
SciTegic.value.DoubleValue
-56.155

@<SCITEGIC>MOL_PROPERTY
W(SA)
SciTegic.value.DoubleValue
2.260

@<SCITEGIC>MOL_PROPERTY
Valence
SciTegic.value.DoubleValue
6.748

@<SCITEGIC>MOL_PROPERTY
Coulomb
SciTegic.value.DoubleValue
46.597

@<SCITEGIC>MOL_PROPERTY
VdW
SciTegic.value.DoubleValue
0.669

@<SCITEGIC>MOL_PROPERTY
VdW6
SciTegic.value.DoubleValue
-8.868

@<SCITEGIC>MOL_PROPERTY
VdW12
SciTegic.value.DoubleValue
9.537

@<SCITEGIC>MOL_PROPERTY
Bond
SciTegic.value.DoubleValue
0.273

@<SCITEGIC>MOL_PROPERTY
Angle
SciTegic.value.DoubleValue
1.645

@<SCITEGIC>MOL_PROPERTY
Pdih
SciTegic.value.DoubleValue
4.830

@<SCITEGIC>MOL_PROPERTY
Idih
SciTegic.value.DoubleValue
0.000

@<SCITEGIC>MOL_PROPERTY
Tether
SciTegic.value.DoubleValue
0.000

@<TRIPOS>MOLECULE
guest-s14_vm2.mol2 : vm2 ligand conformer 185
          26          25           1
SMALL
USER_CHARGES
 
@<TRIPOS>ATOM
       1    C1      21.060826   20.304412   21.445727 C.3        1 MOL1        -0.2400
       2    H1      20.696578   20.522620   22.455111 H          1 MOL1         0.0971
       3    H2      22.130491   20.548954   21.417339 H          1 MOL1         0.0971
       4    H3      20.546616   20.979851   20.749787 H          1 MOL1         0.0971
       5    C2      20.832625   18.827211   21.048305 C.3        1 MOL1        -0.1385
       6    H4      21.419601   18.156283   21.689762 H          1 MOL1         0.0960
       7    H5      21.228361   18.689257   20.032306 H          1 MOL1         0.0960
       8    C3      19.339941   18.410758   21.053074 C.3        1 MOL1        -0.1409
       9    H6      18.706406   19.269037   20.790228 H          1 MOL1         0.0960
      10    H7      19.193755   17.681813   20.243943 H          1 MOL1         0.0960
      11    C4      18.827260   17.751094   22.362152 C.3        1 MOL1        -0.1409
      12    H8      19.403578   16.840499   22.576130 H          1 MOL1         0.0960
      13    H9      17.800671   17.408404   22.172084 H          1 MOL1         0.0960
      14    C5      18.794548   18.671996   23.608480 C.3        1 MOL1        -0.1409
      15    H10     18.642089   19.715949   23.303379 H          1 MOL1         0.0960
      16    H11     17.916579   18.405964   24.213547 H          1 MOL1         0.0960
      17    C6      20.048750   18.538168   24.504978 C.3        1 MOL1        -0.1450
      18    H12     20.958808   18.738829   23.929006 H          1 MOL1         0.0960
      19    H13     20.128164   17.505973   24.871193 H          1 MOL1         0.0960
      20    C7      19.984973   19.499829   25.704340 C.3        1 MOL1         0.0172
      21    H14     19.920549   20.530844   25.346170 H          1 MOL1         0.0934
      22    H15     19.093620   19.286298   26.300450 H          1 MOL1         0.0934
      23    N1      21.192076   19.395532   26.613945 N.4        1 MOL1        -0.5956
      24    H16     22.063510   19.612460   26.119359 H          1 MOL1         0.3624
      25    H17     21.293930   18.454038   27.006879 H          1 MOL1         0.3624
      26    H18     21.128864   20.044146   27.406214 H          1 MOL1         0.3624
@<TRIPOS>BOND
    1     1     2    1
    2     1     3    1
    3     1     4    1
    4     1     5    1
    5     5     6    1
    6     5     7    1
    7     5     8    1
    8     8     9    1
    9     8    10    1
   10     8    11    1
   11    11    12    1
   12    11    13    1
   13    11    14    1
   14    14    15    1
   15    14    16    1
   16    14    17    1
   17    17    18    1
   18    17    19    1
   19    17    20    1
   20    20    21    1
   21    20    22    1
   22    20    23    1
   23    23    24    1
   24    23    25    1
   25    23    26    1
@<TRIPOS>SUBSTRUCTURE
       1 MOL1            1 RESIDUE      1      MOL     
@<SCITEGIC>MOL_PROPERTY
VM2 Rank
SciTegic.value.IntegerValue
185

@<SCITEGIC>MOL_PROPERTY
Conf_Id
SciTegic.value.IntegerValue
1191

@<SCITEGIC>MOL_PROPERTY
Probability
SciTegic.value.DoubleValue
0.00

@<SCITEGIC>MOL_PROPERTY
Sum Probability
SciTegic.value.DoubleValue
100.00

@<SCITEGIC>MOL_PROPERTY
Delta G
SciTegic.value.DoubleValue
6.319

@<SCITEGIC>MOL_PROPERTY
G
SciTegic.value.DoubleValue
54.580

@<SCITEGIC>MOL_PROPERTY
E
SciTegic.value.DoubleValue
21.360

@<SCITEGIC>MOL_PROPERTY
-TS
SciTegic.value.DoubleValue
33.220

@<SCITEGIC>MOL_PROPERTY
U+W
SciTegic.value.DoubleValue
-0.102

@<SCITEGIC>MOL_PROPERTY
U
SciTegic.value.DoubleValue
53.883

@<SCITEGIC>MOL_PROPERTY
W
SciTegic.value.DoubleValue
-53.985

@<SCITEGIC>MOL_PROPERTY
W(PB)
SciTegic.value.DoubleValue
-56.249

@<SCITEGIC>MOL_PROPERTY
W(SA)
SciTegic.value.DoubleValue
2.264

@<SCITEGIC>MOL_PROPERTY
Valence
SciTegic.value.DoubleValue
7.744

@<SCITEGIC>MOL_PROPERTY
Coulomb
SciTegic.value.DoubleValue
45.678

@<SCITEGIC>MOL_PROPERTY
VdW
SciTegic.value.DoubleValue
0.462

@<SCITEGIC>MOL_PROPERTY
VdW6
SciTegic.value.DoubleValue
-8.645

@<SCITEGIC>MOL_PROPERTY
VdW12
SciTegic.value.DoubleValue
9.107

@<SCITEGIC>MOL_PROPERTY
Bond
SciTegic.value.DoubleValue
0.266

@<SCITEGIC>MOL_PROPERTY
Angle
SciTegic.value.DoubleValue
1.932

@<SCITEGIC>MOL_PROPERTY
Pdih
SciTegic.value.DoubleValue
5.545

@<SCITEGIC>MOL_PROPERTY
Idih
SciTegic.value.DoubleValue
0.000

@<SCITEGIC>MOL_PROPERTY
Tether
SciTegic.value.DoubleValue
0.000

@<TRIPOS>MOLECULE
guest-s14_vm2.mol2 : vm2 ligand conformer 186
          26          25           1
SMALL
USER_CHARGES
 
@<TRIPOS>ATOM
       1    C1      18.588693   19.597945   21.153711 C.3        1 MOL1        -0.2400
       2    H1      17.603754   19.233240   20.834837 H          1 MOL1         0.0971
       3    H2      18.529463   19.820841   22.224112 H          1 MOL1         0.0971
       4    H3      18.781990   20.539873   20.624224 H          1 MOL1         0.0971
       5    C2      19.682271   18.552144   20.833672 C.3        1 MOL1        -0.1385
       6    H4      19.667224   18.374163   19.749242 H          1 MOL1         0.0960
       7    H5      19.443789   17.585446   21.297114 H          1 MOL1         0.0960
       8    C3      21.108606   19.006590   21.234648 C.3        1 MOL1        -0.1409
       9    H6      21.811062   18.586567   20.501467 H          1 MOL1         0.0960
      10    H7      21.200698   20.096870   21.135234 H          1 MOL1         0.0960
      11    C4      21.591090   18.556715   22.640572 C.3        1 MOL1        -0.1409
      12    H8      22.648579   18.842545   22.727042 H          1 MOL1         0.0960
      13    H9      21.579060   17.460319   22.710616 H          1 MOL1         0.0960
      14    C5      20.833650   19.180614   23.840282 C.3        1 MOL1        -0.1409
      15    H10     21.558169   19.358518   24.646202 H          1 MOL1         0.0960
      16    H11     20.440510   20.168647   23.565896 H          1 MOL1         0.0960
      17    C6      19.705115   18.272278   24.391130 C.3        1 MOL1        -0.1450
      18    H12     20.134409   17.338040   24.776699 H          1 MOL1         0.0960
      19    H13     19.021545   17.984311   23.584816 H          1 MOL1         0.0960
      20    C7      18.883531   18.954472   25.501720 C.3        1 MOL1         0.0172
      21    H14     18.455313   19.886309   25.122671 H          1 MOL1         0.0934
      22    H15     18.061586   18.298030   25.800113 H          1 MOL1         0.0934
      23    N1      19.688044   19.278243   26.745265 N.4        1 MOL1        -0.5956
      24    H16     20.458289   19.922604   26.541705 H          1 MOL1         0.3624
      25    H17     20.098787   18.436777   27.162597 H          1 MOL1         0.3624
      26    H18     19.110057   19.719872   27.468540 H          1 MOL1         0.3624
@<TRIPOS>BOND
    1     1     2    1
    2     1     3    1
    3     1     4    1
    4     1     5    1
    5     5     6    1
    6     5     7    1
    7     5     8    1
    8     8     9    1
    9     8    10    1
   10     8    11    1
   11    11    12    1
   12    11    13    1
   13    11    14    1
   14    14    15    1
   15    14    16    1
   16    14    17    1
   17    17    18    1
   18    17    19    1
   19    17    20    1
   20    20    21    1
   21    20    22    1
   22    20    23    1
   23    23    24    1
   24    23    25    1
   25    23    26    1
@<TRIPOS>SUBSTRUCTURE
       1 MOL1            1 RESIDUE      1      MOL     
@<SCITEGIC>MOL_PROPERTY
VM2 Rank
SciTegic.value.IntegerValue
186

@<SCITEGIC>MOL_PROPERTY
Conf_Id
SciTegic.value.IntegerValue
797

@<SCITEGIC>MOL_PROPERTY
Probability
SciTegic.value.DoubleValue
0.00

@<SCITEGIC>MOL_PROPERTY
Sum Probability
SciTegic.value.DoubleValue
100.00

@<SCITEGIC>MOL_PROPERTY
Delta G
SciTegic.value.DoubleValue
6.539

@<SCITEGIC>MOL_PROPERTY
G
SciTegic.value.DoubleValue
54.800

@<SCITEGIC>MOL_PROPERTY
E
SciTegic.value.DoubleValue
21.464

@<SCITEGIC>MOL_PROPERTY
-TS
SciTegic.value.DoubleValue
33.336

@<SCITEGIC>MOL_PROPERTY
U+W
SciTegic.value.DoubleValue
0.002

@<SCITEGIC>MOL_PROPERTY
U
SciTegic.value.DoubleValue
54.063

@<SCITEGIC>MOL_PROPERTY
W
SciTegic.value.DoubleValue
-54.061

@<SCITEGIC>MOL_PROPERTY
W(PB)
SciTegic.value.DoubleValue
-56.253

@<SCITEGIC>MOL_PROPERTY
W(SA)
SciTegic.value.DoubleValue
2.192

@<SCITEGIC>MOL_PROPERTY
Valence
SciTegic.value.DoubleValue
7.875

@<SCITEGIC>MOL_PROPERTY
Coulomb
SciTegic.value.DoubleValue
45.591

@<SCITEGIC>MOL_PROPERTY
VdW
SciTegic.value.DoubleValue
0.597

@<SCITEGIC>MOL_PROPERTY
VdW6
SciTegic.value.DoubleValue
-9.142

@<SCITEGIC>MOL_PROPERTY
VdW12
SciTegic.value.DoubleValue
9.739

@<SCITEGIC>MOL_PROPERTY
Bond
SciTegic.value.DoubleValue
0.290

@<SCITEGIC>MOL_PROPERTY
Angle
SciTegic.value.DoubleValue
1.958

@<SCITEGIC>MOL_PROPERTY
Pdih
SciTegic.value.DoubleValue
5.627

@<SCITEGIC>MOL_PROPERTY
Idih
SciTegic.value.DoubleValue
0.000

@<SCITEGIC>MOL_PROPERTY
Tether
SciTegic.value.DoubleValue
0.000

@<TRIPOS>MOLECULE
guest-s14_vm2.mol2 : vm2 ligand conformer 187
          26          25           1
SMALL
USER_CHARGES
 
@<TRIPOS>ATOM
       1    C1      21.051773   18.278373   20.432481 C.3        1 MOL1        -0.2400
       2    H1      20.297451   17.483671   20.479208 H          1 MOL1         0.0971
       3    H2      20.840062   18.898947   19.552112 H          1 MOL1         0.0971
       4    H3      22.027316   17.799748   20.277117 H          1 MOL1         0.0971
       5    C2      21.066971   19.130710   21.722120 C.3        1 MOL1        -0.1385
       6    H4      21.890145   19.855320   21.651829 H          1 MOL1         0.0960
       7    H5      21.296674   18.487211   22.579803 H          1 MOL1         0.0960
       8    C3      19.743402   19.904300   21.954256 C.3        1 MOL1        -0.1409
       9    H6      19.896632   20.696291   22.699267 H          1 MOL1         0.0960
      10    H7      19.486598   20.429510   21.023931 H          1 MOL1         0.0960
      11    C4      18.541314   19.017169   22.375349 C.3        1 MOL1        -0.1409
      12    H8      18.645003   18.002725   21.970439 H          1 MOL1         0.0960
      13    H9      17.639438   19.427994   21.900880 H          1 MOL1         0.0960
      14    C5      18.265965   18.945134   23.901698 C.3        1 MOL1        -0.1409
      15    H10     18.051297   19.949049   24.293614 H          1 MOL1         0.0960
      16    H11     17.339690   18.370578   24.040773 H          1 MOL1         0.0960
      17    C6      19.373875   18.272439   24.749392 C.3        1 MOL1        -0.1450
      18    H12     19.803419   17.422575   24.203042 H          1 MOL1         0.0960
      19    H13     18.914805   17.856054   25.655940 H          1 MOL1         0.0960
      20    C7      20.480109   19.253338   25.183295 C.3        1 MOL1         0.0172
      21    H14     20.959771   19.691991   24.306270 H          1 MOL1         0.0934
      22    H15     20.040945   20.062870   25.772473 H          1 MOL1         0.0934
      23    N1      21.557591   18.597536   26.022409 N.4        1 MOL1        -0.5956
      24    H16     22.282241   19.267120   26.303168 H          1 MOL1         0.3624
      25    H17     22.029201   17.840689   25.516855 H          1 MOL1         0.3624
      26    H18     21.176352   18.192908   26.883859 H          1 MOL1         0.3624
@<TRIPOS>BOND
    1     1     2    1
    2     1     3    1
    3     1     4    1
    4     1     5    1
    5     5     6    1
    6     5     7    1
    7     5     8    1
    8     8     9    1
    9     8    10    1
   10     8    11    1
   11    11    12    1
   12    11    13    1
   13    11    14    1
   14    14    15    1
   15    14    16    1
   16    14    17    1
   17    17    18    1
   18    17    19    1
   19    17    20    1
   20    20    21    1
   21    20    22    1
   22    20    23    1
   23    23    24    1
   24    23    25    1
   25    23    26    1
@<TRIPOS>SUBSTRUCTURE
       1 MOL1            1 RESIDUE      1      MOL     
@<SCITEGIC>MOL_PROPERTY
VM2 Rank
SciTegic.value.IntegerValue
187

@<SCITEGIC>MOL_PROPERTY
Conf_Id
SciTegic.value.IntegerValue
191

@<SCITEGIC>MOL_PROPERTY
Probability
SciTegic.value.DoubleValue
0.00

@<SCITEGIC>MOL_PROPERTY
Sum Probability
SciTegic.value.DoubleValue
100.00

@<SCITEGIC>MOL_PROPERTY
Delta G
SciTegic.value.DoubleValue
6.586

@<SCITEGIC>MOL_PROPERTY
G
SciTegic.value.DoubleValue
54.847

@<SCITEGIC>MOL_PROPERTY
E
SciTegic.value.DoubleValue
21.540

@<SCITEGIC>MOL_PROPERTY
-TS
SciTegic.value.DoubleValue
33.307

@<SCITEGIC>MOL_PROPERTY
U+W
SciTegic.value.DoubleValue
0.078

@<SCITEGIC>MOL_PROPERTY
U
SciTegic.value.DoubleValue
54.604

@<SCITEGIC>MOL_PROPERTY
W
SciTegic.value.DoubleValue
-54.526

@<SCITEGIC>MOL_PROPERTY
W(PB)
SciTegic.value.DoubleValue
-56.765

@<SCITEGIC>MOL_PROPERTY
W(SA)
SciTegic.value.DoubleValue
2.239

@<SCITEGIC>MOL_PROPERTY
Valence
SciTegic.value.DoubleValue
7.775

@<SCITEGIC>MOL_PROPERTY
Coulomb
SciTegic.value.DoubleValue
46.392

@<SCITEGIC>MOL_PROPERTY
VdW
SciTegic.value.DoubleValue
0.438

@<SCITEGIC>MOL_PROPERTY
VdW6
SciTegic.value.DoubleValue
-9.390

@<SCITEGIC>MOL_PROPERTY
VdW12
SciTegic.value.DoubleValue
9.827

@<SCITEGIC>MOL_PROPERTY
Bond
SciTegic.value.DoubleValue
0.291

@<SCITEGIC>MOL_PROPERTY
Angle
SciTegic.value.DoubleValue
1.965

@<SCITEGIC>MOL_PROPERTY
Pdih
SciTegic.value.DoubleValue
5.519

@<SCITEGIC>MOL_PROPERTY
Idih
SciTegic.value.DoubleValue
0.000

@<SCITEGIC>MOL_PROPERTY
Tether
SciTegic.value.DoubleValue
0.000

@<TRIPOS>MOLECULE
guest-s14_vm2.mol2 : vm2 ligand conformer 188
          26          25           1
SMALL
USER_CHARGES
 
@<TRIPOS>ATOM
       1    C1      20.326885   17.800818   20.408214 C.3        1 MOL1        -0.2400
       2    H1      20.389750   16.720810   20.222376 H          1 MOL1         0.0971
       3    H2      19.881293   18.267313   19.520061 H          1 MOL1         0.0971
       4    H3      21.351168   18.178089   20.514268 H          1 MOL1         0.0971
       5    C2      19.478382   18.083994   21.669059 C.3        1 MOL1        -0.1385
       6    H4      19.938971   17.592584   22.534420 H          1 MOL1         0.0960
       7    H5      18.492444   17.616584   21.538403 H          1 MOL1         0.0960
       8    C3      19.278104   19.597707   21.938735 C.3        1 MOL1        -0.1409
       9    H6      18.940204   20.069511   21.005717 H          1 MOL1         0.0960
      10    H7      18.455986   19.747031   22.651191 H          1 MOL1         0.0960
      11    C4      20.546044   20.338035   22.442302 C.3        1 MOL1        -0.1409
      12    H8      20.545802   21.342936   21.997945 H          1 MOL1         0.0960
      13    H9      21.455493   19.854497   22.064289 H          1 MOL1         0.0960
      14    C5      20.649521   20.515588   23.981299 C.3        1 MOL1        -0.1409
      15    H10     21.535082   21.134781   24.180861 H          1 MOL1         0.0960
      16    H11     19.794030   21.097287   24.351821 H          1 MOL1         0.0960
      17    C6      20.791729   19.206630   24.796754 C.3        1 MOL1        -0.1450
      18    H12     21.312454   19.435851   25.736038 H          1 MOL1         0.0960
      19    H13     21.428454   18.493255   24.257352 H          1 MOL1         0.0960
      20    C7      19.435624   18.565136   25.148396 C.3        1 MOL1         0.0172
      21    H14     18.837706   19.270110   25.732216 H          1 MOL1         0.0934
      22    H15     18.884988   18.324856   24.236951 H          1 MOL1         0.0934
      23    N1      19.574711   17.291091   25.956242 N.4        1 MOL1        -0.5956
      24    H16     20.056090   17.454927   26.846519 H          1 MOL1         0.3624
      25    H17     20.107617   16.574588   25.452802 H          1 MOL1         0.3624
      26    H18     18.661725   16.881642   26.182282 H          1 MOL1         0.3624
@<TRIPOS>BOND
    1     1     2    1
    2     1     3    1
    3     1     4    1
    4     1     5    1
    5     5     6    1
    6     5     7    1
    7     5     8    1
    8     8     9    1
    9     8    10    1
   10     8    11    1
   11    11    12    1
   12    11    13    1
   13    11    14    1
   14    14    15    1
   15    14    16    1
   16    14    17    1
   17    17    18    1
   18    17    19    1
   19    17    20    1
   20    20    21    1
   21    20    22    1
   22    20    23    1
   23    23    24    1
   24    23    25    1
   25    23    26    1
@<TRIPOS>SUBSTRUCTURE
       1 MOL1            1 RESIDUE      1      MOL     
@<SCITEGIC>MOL_PROPERTY
VM2 Rank
SciTegic.value.IntegerValue
188

@<SCITEGIC>MOL_PROPERTY
Conf_Id
SciTegic.value.IntegerValue
836

@<SCITEGIC>MOL_PROPERTY
Probability
SciTegic.value.DoubleValue
0.00

@<SCITEGIC>MOL_PROPERTY
Sum Probability
SciTegic.value.DoubleValue
100.00

@<SCITEGIC>MOL_PROPERTY
Delta G
SciTegic.value.DoubleValue
6.639

@<SCITEGIC>MOL_PROPERTY
G
SciTegic.value.DoubleValue
54.901

@<SCITEGIC>MOL_PROPERTY
E
SciTegic.value.DoubleValue
21.593

@<SCITEGIC>MOL_PROPERTY
-TS
SciTegic.value.DoubleValue
33.307

@<SCITEGIC>MOL_PROPERTY
U+W
SciTegic.value.DoubleValue
0.132

@<SCITEGIC>MOL_PROPERTY
U
SciTegic.value.DoubleValue
54.604

@<SCITEGIC>MOL_PROPERTY
W
SciTegic.value.DoubleValue
-54.473

@<SCITEGIC>MOL_PROPERTY
W(PB)
SciTegic.value.DoubleValue
-56.712

@<SCITEGIC>MOL_PROPERTY
W(SA)
SciTegic.value.DoubleValue
2.239

@<SCITEGIC>MOL_PROPERTY
Valence
SciTegic.value.DoubleValue
7.775

@<SCITEGIC>MOL_PROPERTY
Coulomb
SciTegic.value.DoubleValue
46.392

@<SCITEGIC>MOL_PROPERTY
VdW
SciTegic.value.DoubleValue
0.438

@<SCITEGIC>MOL_PROPERTY
VdW6
SciTegic.value.DoubleValue
-9.390

@<SCITEGIC>MOL_PROPERTY
VdW12
SciTegic.value.DoubleValue
9.827

@<SCITEGIC>MOL_PROPERTY
Bond
SciTegic.value.DoubleValue
0.291

@<SCITEGIC>MOL_PROPERTY
Angle
SciTegic.value.DoubleValue
1.965

@<SCITEGIC>MOL_PROPERTY
Pdih
SciTegic.value.DoubleValue
5.519

@<SCITEGIC>MOL_PROPERTY
Idih
SciTegic.value.DoubleValue
0.000

@<SCITEGIC>MOL_PROPERTY
Tether
SciTegic.value.DoubleValue
0.000

@<TRIPOS>MOLECULE
guest-s14_vm2.mol2 : vm2 ligand conformer 189
          26          25           1
SMALL
USER_CHARGES
 
@<TRIPOS>ATOM
       1    C1      18.777823   19.881156   21.304494 C.3        1 MOL1        -0.2400
       2    H1      18.212954   19.717500   22.230322 H          1 MOL1         0.0971
       3    H2      19.493997   20.694739   21.464242 H          1 MOL1         0.0971
       4    H3      18.070203   20.222498   20.537931 H          1 MOL1         0.0971
       5    C2      19.486679   18.590521   20.840673 C.3        1 MOL1        -0.1385
       6    H4      20.133763   18.818333   19.982207 H          1 MOL1         0.0960
       7    H5      18.724053   17.893267   20.466475 H          1 MOL1         0.0960
       8    C3      20.309340   17.862396   21.935237 C.3        1 MOL1        -0.1409
       9    H6      19.660863   17.547426   22.759474 H          1 MOL1         0.0960
      10    H7      20.668596   16.924921   21.488689 H          1 MOL1         0.0960
      11    C4      21.555170   18.627065   22.460122 C.3        1 MOL1        -0.1409
      12    H8      22.049075   19.131316   21.618294 H          1 MOL1         0.0960
      13    H9      22.280507   17.883497   22.818372 H          1 MOL1         0.0960
      14    C5      21.330777   19.650383   23.608156 C.3        1 MOL1        -0.1409
      15    H10     22.311087   20.086132   23.845821 H          1 MOL1         0.0960
      16    H11     20.717654   20.495793   23.277811 H          1 MOL1         0.0960
      17    C6      20.751961   19.050505   24.914774 C.3        1 MOL1        -0.1450
      18    H12     21.174940   19.597291   25.768081 H          1 MOL1         0.0960
      19    H13     21.071565   18.006094   25.028108 H          1 MOL1         0.0960
      20    C7      19.216770   19.154622   24.996689 C.3        1 MOL1         0.0172
      21    H14     18.918169   20.204692   24.936989 H          1 MOL1         0.0934
      22    H15     18.755446   18.622318   24.163050 H          1 MOL1         0.0934
      23    N1      18.652481   18.582353   26.280856 N.4        1 MOL1        -0.5956
      24    H16     17.630753   18.665413   26.318850 H          1 MOL1         0.3624
      25    H17     19.021655   19.063248   27.107649 H          1 MOL1         0.3624
      26    H18     18.875536   17.587266   26.386248 H          1 MOL1         0.3624
@<TRIPOS>BOND
    1     1     2    1
    2     1     3    1
    3     1     4    1
    4     1     5    1
    5     5     6    1
    6     5     7    1
    7     5     8    1
    8     8     9    1
    9     8    10    1
   10     8    11    1
   11    11    12    1
   12    11    13    1
   13    11    14    1
   14    14    15    1
   15    14    16    1
   16    14    17    1
   17    17    18    1
   18    17    19    1
   19    17    20    1
   20    20    21    1
   21    20    22    1
   22    20    23    1
   23    23    24    1
   24    23    25    1
   25    23    26    1
@<TRIPOS>SUBSTRUCTURE
       1 MOL1            1 RESIDUE      1      MOL     
@<SCITEGIC>MOL_PROPERTY
VM2 Rank
SciTegic.value.IntegerValue
189

@<SCITEGIC>MOL_PROPERTY
Conf_Id
SciTegic.value.IntegerValue
814

@<SCITEGIC>MOL_PROPERTY
Probability
SciTegic.value.DoubleValue
0.00

@<SCITEGIC>MOL_PROPERTY
Sum Probability
SciTegic.value.DoubleValue
100.00

@<SCITEGIC>MOL_PROPERTY
Delta G
SciTegic.value.DoubleValue
6.722

@<SCITEGIC>MOL_PROPERTY
G
SciTegic.value.DoubleValue
54.983

@<SCITEGIC>MOL_PROPERTY
E
SciTegic.value.DoubleValue
21.952

@<SCITEGIC>MOL_PROPERTY
-TS
SciTegic.value.DoubleValue
33.031

@<SCITEGIC>MOL_PROPERTY
U+W
SciTegic.value.DoubleValue
0.490

@<SCITEGIC>MOL_PROPERTY
U
SciTegic.value.DoubleValue
54.806

@<SCITEGIC>MOL_PROPERTY
W
SciTegic.value.DoubleValue
-54.315

@<SCITEGIC>MOL_PROPERTY
W(PB)
SciTegic.value.DoubleValue
-56.529

@<SCITEGIC>MOL_PROPERTY
W(SA)
SciTegic.value.DoubleValue
2.214

@<SCITEGIC>MOL_PROPERTY
Valence
SciTegic.value.DoubleValue
8.228

@<SCITEGIC>MOL_PROPERTY
Coulomb
SciTegic.value.DoubleValue
46.248

@<SCITEGIC>MOL_PROPERTY
VdW
SciTegic.value.DoubleValue
0.330

@<SCITEGIC>MOL_PROPERTY
VdW6
SciTegic.value.DoubleValue
-9.307

@<SCITEGIC>MOL_PROPERTY
VdW12
SciTegic.value.DoubleValue
9.637

@<SCITEGIC>MOL_PROPERTY
Bond
SciTegic.value.DoubleValue
0.318

@<SCITEGIC>MOL_PROPERTY
Angle
SciTegic.value.DoubleValue
2.922

@<SCITEGIC>MOL_PROPERTY
Pdih
SciTegic.value.DoubleValue
4.988

@<SCITEGIC>MOL_PROPERTY
Idih
SciTegic.value.DoubleValue
0.000

@<SCITEGIC>MOL_PROPERTY
Tether
SciTegic.value.DoubleValue
0.000

@<TRIPOS>MOLECULE
guest-s14_vm2.mol2 : vm2 ligand conformer 190
          26          25           1
SMALL
USER_CHARGES
 
@<TRIPOS>ATOM
       1    C1      18.739201   18.686423   20.034067 C.3        1 MOL1        -0.2400
       2    H1      18.871703   19.681535   19.589696 H          1 MOL1         0.0971
       3    H2      18.649935   17.961099   19.214923 H          1 MOL1         0.0971
       4    H3      17.793017   18.683928   20.590782 H          1 MOL1         0.0971
       5    C2      19.925784   18.327028   20.953049 C.3        1 MOL1        -0.1385
       6    H4      20.851510   18.303788   20.360962 H          1 MOL1         0.0960
       7    H5      19.781542   17.313931   21.353390 H          1 MOL1         0.0960
       8    C3      20.075512   19.335604   22.113254 C.3        1 MOL1        -0.1409
       9    H6      20.231660   20.342064   21.700610 H          1 MOL1         0.0960
      10    H7      19.139150   19.383690   22.681116 H          1 MOL1         0.0960
      11    C4      21.265232   18.978011   23.038032 C.3        1 MOL1        -0.1409
      12    H8      22.190449   19.086192   22.454935 H          1 MOL1         0.0960
      13    H9      21.228464   17.923396   23.341673 H          1 MOL1         0.0960
      14    C5      21.361773   19.890674   24.287276 C.3        1 MOL1        -0.1409
      15    H10     22.425785   20.062282   24.501543 H          1 MOL1         0.0960
      16    H11     20.943560   20.882232   24.065079 H          1 MOL1         0.0960
      17    C6      20.715029   19.320120   25.578014 C.3        1 MOL1        -0.1450
      18    H12     20.901206   20.035322   26.390201 H          1 MOL1         0.0960
      19    H13     21.220673   18.391967   25.875901 H          1 MOL1         0.0960
      20    C7      19.193034   19.083288   25.502076 C.3        1 MOL1         0.0172
      21    H14     18.784762   19.057305   26.516037 H          1 MOL1         0.0934
      22    H15     18.715144   19.906585   24.964565 H          1 MOL1         0.0934
      23    N1      18.805435   17.777852   24.835233 N.4        1 MOL1        -0.5956
      24    H16     19.158795   17.731920   23.874054 H          1 MOL1         0.3624
      25    H17     17.787245   17.658223   24.795396 H          1 MOL1         0.3624
      26    H18     19.182506   16.968536   25.339388 H          1 MOL1         0.3624
@<TRIPOS>BOND
    1     1     2    1
    2     1     3    1
    3     1     4    1
    4     1     5    1
    5     5     6    1
    6     5     7    1
    7     5     8    1
    8     8     9    1
    9     8    10    1
   10     8    11    1
   11    11    12    1
   12    11    13    1
   13    11    14    1
   14    14    15    1
   15    14    16    1
   16    14    17    1
   17    17    18    1
   18    17    19    1
   19    17    20    1
   20    20    21    1
   21    20    22    1
   22    20    23    1
   23    23    24    1
   24    23    25    1
   25    23    26    1
@<TRIPOS>SUBSTRUCTURE
       1 MOL1            1 RESIDUE      1      MOL     
@<SCITEGIC>MOL_PROPERTY
VM2 Rank
SciTegic.value.IntegerValue
190

@<SCITEGIC>MOL_PROPERTY
Conf_Id
SciTegic.value.IntegerValue
1236

@<SCITEGIC>MOL_PROPERTY
Probability
SciTegic.value.DoubleValue
0.00

@<SCITEGIC>MOL_PROPERTY
Sum Probability
SciTegic.value.DoubleValue
100.00

@<SCITEGIC>MOL_PROPERTY
Delta G
SciTegic.value.DoubleValue
6.832

@<SCITEGIC>MOL_PROPERTY
G
SciTegic.value.DoubleValue
55.094

@<SCITEGIC>MOL_PROPERTY
E
SciTegic.value.DoubleValue
21.961

@<SCITEGIC>MOL_PROPERTY
-TS
SciTegic.value.DoubleValue
33.133

@<SCITEGIC>MOL_PROPERTY
U+W
SciTegic.value.DoubleValue
0.499

@<SCITEGIC>MOL_PROPERTY
U
SciTegic.value.DoubleValue
53.726

@<SCITEGIC>MOL_PROPERTY
W
SciTegic.value.DoubleValue
-53.227

@<SCITEGIC>MOL_PROPERTY
W(PB)
SciTegic.value.DoubleValue
-55.471

@<SCITEGIC>MOL_PROPERTY
W(SA)
SciTegic.value.DoubleValue
2.244

@<SCITEGIC>MOL_PROPERTY
Valence
SciTegic.value.DoubleValue
6.198

@<SCITEGIC>MOL_PROPERTY
Coulomb
SciTegic.value.DoubleValue
47.155

@<SCITEGIC>MOL_PROPERTY
VdW
SciTegic.value.DoubleValue
0.373

@<SCITEGIC>MOL_PROPERTY
VdW6
SciTegic.value.DoubleValue
-8.927

@<SCITEGIC>MOL_PROPERTY
VdW12
SciTegic.value.DoubleValue
9.300

@<SCITEGIC>MOL_PROPERTY
Bond
SciTegic.value.DoubleValue
0.233

@<SCITEGIC>MOL_PROPERTY
Angle
SciTegic.value.DoubleValue
1.463

@<SCITEGIC>MOL_PROPERTY
Pdih
SciTegic.value.DoubleValue
4.503

@<SCITEGIC>MOL_PROPERTY
Idih
SciTegic.value.DoubleValue
0.000

@<SCITEGIC>MOL_PROPERTY
Tether
SciTegic.value.DoubleValue
0.000

@<TRIPOS>MOLECULE
guest-s14_vm2.mol2 : vm2 ligand conformer 191
          26          25           1
SMALL
USER_CHARGES
 
@<TRIPOS>ATOM
       1    C1      20.879805   20.098171   20.105533 C.3        1 MOL1        -0.2400
       2    H1      21.227754   20.949189   20.705450 H          1 MOL1         0.0971
       3    H2      21.619172   19.919313   19.314074 H          1 MOL1         0.0971
       4    H3      19.934443   20.382401   19.625146 H          1 MOL1         0.0971
       5    C2      20.701205   18.838443   20.978951 C.3        1 MOL1        -0.1385
       6    H4      21.669753   18.559256   21.416460 H          1 MOL1         0.0960
       7    H5      20.386573   17.997154   20.345456 H          1 MOL1         0.0960
       8    C3      19.662082   19.062960   22.099456 C.3        1 MOL1        -0.1409
       9    H6      19.959228   19.924521   22.708530 H          1 MOL1         0.0960
      10    H7      18.695531   19.329014   21.649330 H          1 MOL1         0.0960
      11    C4      19.480322   17.800839   22.978396 C.3        1 MOL1        -0.1409
      12    H8      20.449296   17.409535   23.315638 H          1 MOL1         0.0960
      13    H9      19.044788   17.011576   22.349821 H          1 MOL1         0.0960
      14    C5      18.545999   18.033595   24.193200 C.3        1 MOL1        -0.1409
      15    H10     17.809776   18.815408   23.960378 H          1 MOL1         0.0960
      16    H11     17.960641   17.117351   24.352367 H          1 MOL1         0.0960
      17    C6      19.263948   18.363126   25.529527 C.3        1 MOL1        -0.1450
      18    H12     19.904045   17.523655   25.831927 H          1 MOL1         0.0960
      19    H13     18.496133   18.449166   26.309836 H          1 MOL1         0.0960
      20    C7      20.082658   19.670042   25.531762 C.3        1 MOL1         0.0172
      21    H14     19.539170   20.450008   24.991954 H          1 MOL1         0.0934
      22    H15     20.219574   20.003760   26.563928 H          1 MOL1         0.0934
      23    N1      21.464981   19.531825   24.924176 N.4        1 MOL1        -0.5956
      24    H16     21.976522   20.421097   24.935405 H          1 MOL1         0.3624
      25    H17     21.413222   19.218552   23.949485 H          1 MOL1         0.3624
      26    H18     22.036776   18.851016   25.434958 H          1 MOL1         0.3624
@<TRIPOS>BOND
    1     1     2    1
    2     1     3    1
    3     1     4    1
    4     1     5    1
    5     5     6    1
    6     5     7    1
    7     5     8    1
    8     8     9    1
    9     8    10    1
   10     8    11    1
   11    11    12    1
   12    11    13    1
   13    11    14    1
   14    14    15    1
   15    14    16    1
   16    14    17    1
   17    17    18    1
   18    17    19    1
   19    17    20    1
   20    20    21    1
   21    20    22    1
   22    20    23    1
   23    23    24    1
   24    23    25    1
   25    23    26    1
@<TRIPOS>SUBSTRUCTURE
       1 MOL1            1 RESIDUE      1      MOL     
@<SCITEGIC>MOL_PROPERTY
VM2 Rank
SciTegic.value.IntegerValue
191

@<SCITEGIC>MOL_PROPERTY
Conf_Id
SciTegic.value.IntegerValue
1044

@<SCITEGIC>MOL_PROPERTY
Probability
SciTegic.value.DoubleValue
0.00

@<SCITEGIC>MOL_PROPERTY
Sum Probability
SciTegic.value.DoubleValue
100.00

@<SCITEGIC>MOL_PROPERTY
Delta G
SciTegic.value.DoubleValue
6.834

@<SCITEGIC>MOL_PROPERTY
G
SciTegic.value.DoubleValue
55.095

@<SCITEGIC>MOL_PROPERTY
E
SciTegic.value.DoubleValue
21.962

@<SCITEGIC>MOL_PROPERTY
-TS
SciTegic.value.DoubleValue
33.133

@<SCITEGIC>MOL_PROPERTY
U+W
SciTegic.value.DoubleValue
0.500

@<SCITEGIC>MOL_PROPERTY
U
SciTegic.value.DoubleValue
53.726

@<SCITEGIC>MOL_PROPERTY
W
SciTegic.value.DoubleValue
-53.226

@<SCITEGIC>MOL_PROPERTY
W(PB)
SciTegic.value.DoubleValue
-55.465

@<SCITEGIC>MOL_PROPERTY
W(SA)
SciTegic.value.DoubleValue
2.239

@<SCITEGIC>MOL_PROPERTY
Valence
SciTegic.value.DoubleValue
6.198

@<SCITEGIC>MOL_PROPERTY
Coulomb
SciTegic.value.DoubleValue
47.155

@<SCITEGIC>MOL_PROPERTY
VdW
SciTegic.value.DoubleValue
0.373

@<SCITEGIC>MOL_PROPERTY
VdW6
SciTegic.value.DoubleValue
-8.927

@<SCITEGIC>MOL_PROPERTY
VdW12
SciTegic.value.DoubleValue
9.300

@<SCITEGIC>MOL_PROPERTY
Bond
SciTegic.value.DoubleValue
0.233

@<SCITEGIC>MOL_PROPERTY
Angle
SciTegic.value.DoubleValue
1.463

@<SCITEGIC>MOL_PROPERTY
Pdih
SciTegic.value.DoubleValue
4.503

@<SCITEGIC>MOL_PROPERTY
Idih
SciTegic.value.DoubleValue
0.000

@<SCITEGIC>MOL_PROPERTY
Tether
SciTegic.value.DoubleValue
0.000

@<TRIPOS>MOLECULE
guest-s14_vm2.mol2 : vm2 ligand conformer 192
          26          25           1
SMALL
USER_CHARGES
 
@<TRIPOS>ATOM
       1    C1      18.945259   17.980955   20.885704 C.3        1 MOL1        -0.2400
       2    H1      18.709290   16.916436   20.759527 H          1 MOL1         0.0971
       3    H2      18.321436   18.366864   21.698981 H          1 MOL1         0.0971
       4    H3      18.651683   18.498548   19.963256 H          1 MOL1         0.0971
       5    C2      20.453959   18.171938   21.166786 C.3        1 MOL1        -0.1385
       6    H4      21.008707   17.768124   20.308259 H          1 MOL1         0.0960
       7    H5      20.767813   17.573044   22.032242 H          1 MOL1         0.0960
       8    C3      20.859226   19.654923   21.360038 C.3        1 MOL1        -0.1409
       9    H6      21.860217   19.787628   20.926644 H          1 MOL1         0.0960
      10    H7      20.198741   20.308409   20.773665 H          1 MOL1         0.0960
      11    C4      20.927264   20.147080   22.831101 C.3        1 MOL1        -0.1409
      12    H8      21.334858   21.167301   22.811463 H          1 MOL1         0.0960
      13    H9      21.662821   19.552862   23.388177 H          1 MOL1         0.0960
      14    C5      19.571014   20.197568   23.584548 C.3        1 MOL1        -0.1409
      15    H10     19.579503   21.061613   24.263510 H          1 MOL1         0.0960
      16    H11     18.758800   20.394693   22.872261 H          1 MOL1         0.0960
      17    C6      19.248265   18.935133   24.423431 C.3        1 MOL1        -0.1450
      18    H12     19.275883   18.036976   23.796890 H          1 MOL1         0.0960
      19    H13     18.221652   19.017999   24.804077 H          1 MOL1         0.0960
      20    C7      20.207010   18.756867   25.615871 C.3        1 MOL1         0.0172
      21    H14     21.231010   18.633136   25.254916 H          1 MOL1         0.0934
      22    H15     20.171486   19.645370   26.251991 H          1 MOL1         0.0934
      23    N1      19.869002   17.554537   26.473521 N.4        1 MOL1        -0.5956
      24    H16     18.925935   17.621385   26.870132 H          1 MOL1         0.3624
      25    H17     20.517711   17.454797   27.261922 H          1 MOL1         0.3624
      26    H18     19.911025   16.680232   25.939799 H          1 MOL1         0.3624
@<TRIPOS>BOND
    1     1     2    1
    2     1     3    1
    3     1     4    1
    4     1     5    1
    5     5     6    1
    6     5     7    1
    7     5     8    1
    8     8     9    1
    9     8    10    1
   10     8    11    1
   11    11    12    1
   12    11    13    1
   13    11    14    1
   14    14    15    1
   15    14    16    1
   16    14    17    1
   17    17    18    1
   18    17    19    1
   19    17    20    1
   20    20    21    1
   21    20    22    1
   22    20    23    1
   23    23    24    1
   24    23    25    1
   25    23    26    1
@<TRIPOS>SUBSTRUCTURE
       1 MOL1            1 RESIDUE      1      MOL     
@<SCITEGIC>MOL_PROPERTY
VM2 Rank
SciTegic.value.IntegerValue
192

@<SCITEGIC>MOL_PROPERTY
Conf_Id
SciTegic.value.IntegerValue
160

@<SCITEGIC>MOL_PROPERTY
Probability
SciTegic.value.DoubleValue
0.00

@<SCITEGIC>MOL_PROPERTY
Sum Probability
SciTegic.value.DoubleValue
100.00

@<SCITEGIC>MOL_PROPERTY
Delta G
SciTegic.value.DoubleValue
6.898

@<SCITEGIC>MOL_PROPERTY
G
SciTegic.value.DoubleValue
55.160

@<SCITEGIC>MOL_PROPERTY
E
SciTegic.value.DoubleValue
21.890

@<SCITEGIC>MOL_PROPERTY
-TS
SciTegic.value.DoubleValue
33.270

@<SCITEGIC>MOL_PROPERTY
U+W
SciTegic.value.DoubleValue
0.428

@<SCITEGIC>MOL_PROPERTY
U
SciTegic.value.DoubleValue
54.562

@<SCITEGIC>MOL_PROPERTY
W
SciTegic.value.DoubleValue
-54.134

@<SCITEGIC>MOL_PROPERTY
W(PB)
SciTegic.value.DoubleValue
-56.362

@<SCITEGIC>MOL_PROPERTY
W(SA)
SciTegic.value.DoubleValue
2.229

@<SCITEGIC>MOL_PROPERTY
Valence
SciTegic.value.DoubleValue
8.177

@<SCITEGIC>MOL_PROPERTY
Coulomb
SciTegic.value.DoubleValue
45.812

@<SCITEGIC>MOL_PROPERTY
VdW
SciTegic.value.DoubleValue
0.572

@<SCITEGIC>MOL_PROPERTY
VdW6
SciTegic.value.DoubleValue
-9.083

@<SCITEGIC>MOL_PROPERTY
VdW12
SciTegic.value.DoubleValue
9.655

@<SCITEGIC>MOL_PROPERTY
Bond
SciTegic.value.DoubleValue
0.296

@<SCITEGIC>MOL_PROPERTY
Angle
SciTegic.value.DoubleValue
2.095

@<SCITEGIC>MOL_PROPERTY
Pdih
SciTegic.value.DoubleValue
5.787

@<SCITEGIC>MOL_PROPERTY
Idih
SciTegic.value.DoubleValue
0.000

@<SCITEGIC>MOL_PROPERTY
Tether
SciTegic.value.DoubleValue
0.000

@<TRIPOS>MOLECULE
guest-s14_vm2.mol2 : vm2 ligand conformer 193
          26          25           1
SMALL
USER_CHARGES
 
@<TRIPOS>ATOM
       1    C1      18.347812   18.798716   21.530387 C.3        1 MOL1        -0.2400
       2    H1      18.341885   19.031243   22.599907 H          1 MOL1         0.0971
       3    H2      17.983147   19.683429   20.992513 H          1 MOL1         0.0971
       4    H3      17.629804   17.986122   21.360210 H          1 MOL1         0.0971
       5    C2      19.753985   18.392897   21.031199 C.3        1 MOL1        -0.1385
       6    H4      19.680209   18.183931   19.954737 H          1 MOL1         0.0960
       7    H5      20.075479   17.451146   21.495829 H          1 MOL1         0.0960
       8    C3      20.822867   19.493955   21.245778 C.3        1 MOL1        -0.1409
       9    H6      21.518596   19.455076   20.396156 H          1 MOL1         0.0960
      10    H7      20.358105   20.488278   21.196664 H          1 MOL1         0.0960
      11    C4      21.671745   19.365924   22.539761 C.3        1 MOL1        -0.1409
      12    H8      22.450164   20.140155   22.494281 H          1 MOL1         0.0960
      13    H9      22.212355   18.409506   22.542072 H          1 MOL1         0.0960
      14    C5      20.899594   19.550823   23.871268 C.3        1 MOL1        -0.1409
      15    H10     21.564691   20.051848   24.588366 H          1 MOL1         0.0960
      16    H11     20.053432   20.233047   23.720034 H          1 MOL1         0.0960
      17    C6      20.437770   18.214070   24.505805 C.3        1 MOL1        -0.1450
      18    H12     21.313561   17.571932   24.668048 H          1 MOL1         0.0960
      19    H13     19.775859   17.663854   23.828104 H          1 MOL1         0.0960
      20    C7      19.729376   18.414396   25.859269 C.3        1 MOL1         0.0172
      21    H14     19.517007   17.439018   26.305429 H          1 MOL1         0.0934
      22    H15     20.385011   18.964691   26.539479 H          1 MOL1         0.0934
      23    N1      18.417851   19.168218   25.757533 N.4        1 MOL1        -0.5956
      24    H16     17.745425   18.682721   25.155341 H          1 MOL1         0.3624
      25    H17     18.549869   20.108714   25.373059 H          1 MOL1         0.3624
      26    H18     17.972341   19.279118   26.674931 H          1 MOL1         0.3624
@<TRIPOS>BOND
    1     1     2    1
    2     1     3    1
    3     1     4    1
    4     1     5    1
    5     5     6    1
    6     5     7    1
    7     5     8    1
    8     8     9    1
    9     8    10    1
   10     8    11    1
   11    11    12    1
   12    11    13    1
   13    11    14    1
   14    14    15    1
   15    14    16    1
   16    14    17    1
   17    17    18    1
   18    17    19    1
   19    17    20    1
   20    20    21    1
   21    20    22    1
   22    20    23    1
   23    23    24    1
   24    23    25    1
   25    23    26    1
@<TRIPOS>SUBSTRUCTURE
       1 MOL1            1 RESIDUE      1      MOL     
@<SCITEGIC>MOL_PROPERTY
VM2 Rank
SciTegic.value.IntegerValue
193

@<SCITEGIC>MOL_PROPERTY
Conf_Id
SciTegic.value.IntegerValue
1308

@<SCITEGIC>MOL_PROPERTY
Probability
SciTegic.value.DoubleValue
0.00

@<SCITEGIC>MOL_PROPERTY
Sum Probability
SciTegic.value.DoubleValue
100.00

@<SCITEGIC>MOL_PROPERTY
Delta G
SciTegic.value.DoubleValue
7.105

@<SCITEGIC>MOL_PROPERTY
G
SciTegic.value.DoubleValue
55.367

@<SCITEGIC>MOL_PROPERTY
E
SciTegic.value.DoubleValue
21.955

@<SCITEGIC>MOL_PROPERTY
-TS
SciTegic.value.DoubleValue
33.412

@<SCITEGIC>MOL_PROPERTY
U+W
SciTegic.value.DoubleValue
0.493

@<SCITEGIC>MOL_PROPERTY
U
SciTegic.value.DoubleValue
54.898

@<SCITEGIC>MOL_PROPERTY
W
SciTegic.value.DoubleValue
-54.405

@<SCITEGIC>MOL_PROPERTY
W(PB)
SciTegic.value.DoubleValue
-56.568

@<SCITEGIC>MOL_PROPERTY
W(SA)
SciTegic.value.DoubleValue
2.163

@<SCITEGIC>MOL_PROPERTY
Valence
SciTegic.value.DoubleValue
7.854

@<SCITEGIC>MOL_PROPERTY
Coulomb
SciTegic.value.DoubleValue
46.637

@<SCITEGIC>MOL_PROPERTY
VdW
SciTegic.value.DoubleValue
0.407

@<SCITEGIC>MOL_PROPERTY
VdW6
SciTegic.value.DoubleValue
-9.363

@<SCITEGIC>MOL_PROPERTY
VdW12
SciTegic.value.DoubleValue
9.769

@<SCITEGIC>MOL_PROPERTY
Bond
SciTegic.value.DoubleValue
0.292

@<SCITEGIC>MOL_PROPERTY
Angle
SciTegic.value.DoubleValue
1.989

@<SCITEGIC>MOL_PROPERTY
Pdih
SciTegic.value.DoubleValue
5.573

@<SCITEGIC>MOL_PROPERTY
Idih
SciTegic.value.DoubleValue
0.000

@<SCITEGIC>MOL_PROPERTY
Tether
SciTegic.value.DoubleValue
0.000

@<TRIPOS>MOLECULE
guest-s14_vm2.mol2 : vm2 ligand conformer 194
          26          25           1
SMALL
USER_CHARGES
 
@<TRIPOS>ATOM
       1    C1      20.859746   20.456595   21.614445 C.3        1 MOL1        -0.2400
       2    H1      20.214806   21.156392   21.067323 H          1 MOL1         0.0971
       3    H2      20.598798   20.520646   22.675471 H          1 MOL1         0.0971
       4    H3      21.895718   20.801707   21.502801 H          1 MOL1         0.0971
       5    C2      20.704536   19.020273   21.063000 C.3        1 MOL1        -0.1385
       6    H4      21.422128   18.339928   21.540835 H          1 MOL1         0.0960
       7    H5      20.975538   19.038920   19.998065 H          1 MOL1         0.0960
       8    C3      19.263888   18.464985   21.193659 C.3        1 MOL1        -0.1409
       9    H6      18.534816   19.284851   21.135642 H          1 MOL1         0.0960
      10    H7      19.066434   17.836523   20.314195 H          1 MOL1         0.0960
      11    C4      18.988471   17.594966   22.450079 C.3        1 MOL1        -0.1409
      12    H8      19.655129   16.721741   22.456629 H          1 MOL1         0.0960
      13    H9      17.974067   17.185931   22.344670 H          1 MOL1         0.0960
      14    C5      19.059360   18.336304   23.809750 C.3        1 MOL1        -0.1409
      15    H10     18.771436   19.386923   23.677130 H          1 MOL1         0.0960
      16    H11     18.304843   17.900512   24.479376 H          1 MOL1         0.0960
      17    C6      20.439015   18.214852   24.505902 C.3        1 MOL1        -0.1450
      18    H12     21.235645   18.627083   23.876942 H          1 MOL1         0.0960
      19    H13     20.677944   17.152453   24.646959 H          1 MOL1         0.0960
      20    C7      20.469748   18.903098   25.884011 C.3        1 MOL1         0.0172
      21    H14     19.675401   18.496575   26.515770 H          1 MOL1         0.0934
      22    H15     21.428356   18.700545   26.369360 H          1 MOL1         0.0934
      23    N1      20.296237   20.407927   25.820154 N.4        1 MOL1        -0.5956
      24    H16     21.034028   20.852999   25.265110 H          1 MOL1         0.3624
      25    H17     20.326287   20.832814   26.753408 H          1 MOL1         0.3624
      26    H18     19.398334   20.668671   25.401152 H          1 MOL1         0.3624
@<TRIPOS>BOND
    1     1     2    1
    2     1     3    1
    3     1     4    1
    4     1     5    1
    5     5     6    1
    6     5     7    1
    7     5     8    1
    8     8     9    1
    9     8    10    1
   10     8    11    1
   11    11    12    1
   12    11    13    1
   13    11    14    1
   14    14    15    1
   15    14    16    1
   16    14    17    1
   17    17    18    1
   18    17    19    1
   19    17    20    1
   20    20    21    1
   21    20    22    1
   22    20    23    1
   23    23    24    1
   24    23    25    1
   25    23    26    1
@<TRIPOS>SUBSTRUCTURE
       1 MOL1            1 RESIDUE      1      MOL     
@<SCITEGIC>MOL_PROPERTY
VM2 Rank
SciTegic.value.IntegerValue
194

@<SCITEGIC>MOL_PROPERTY
Conf_Id
SciTegic.value.IntegerValue
511

@<SCITEGIC>MOL_PROPERTY
Probability
SciTegic.value.DoubleValue
0.00

@<SCITEGIC>MOL_PROPERTY
Sum Probability
SciTegic.value.DoubleValue
100.00

@<SCITEGIC>MOL_PROPERTY
Delta G
SciTegic.value.DoubleValue
7.125

@<SCITEGIC>MOL_PROPERTY
G
SciTegic.value.DoubleValue
55.386

@<SCITEGIC>MOL_PROPERTY
E
SciTegic.value.DoubleValue
21.974

@<SCITEGIC>MOL_PROPERTY
-TS
SciTegic.value.DoubleValue
33.412

@<SCITEGIC>MOL_PROPERTY
U+W
SciTegic.value.DoubleValue
0.512

@<SCITEGIC>MOL_PROPERTY
U
SciTegic.value.DoubleValue
54.898

@<SCITEGIC>MOL_PROPERTY
W
SciTegic.value.DoubleValue
-54.386

@<SCITEGIC>MOL_PROPERTY
W(PB)
SciTegic.value.DoubleValue
-56.583

@<SCITEGIC>MOL_PROPERTY
W(SA)
SciTegic.value.DoubleValue
2.198

@<SCITEGIC>MOL_PROPERTY
Valence
SciTegic.value.DoubleValue
7.854

@<SCITEGIC>MOL_PROPERTY
Coulomb
SciTegic.value.DoubleValue
46.637

@<SCITEGIC>MOL_PROPERTY
VdW
SciTegic.value.DoubleValue
0.407

@<SCITEGIC>MOL_PROPERTY
VdW6
SciTegic.value.DoubleValue
-9.363

@<SCITEGIC>MOL_PROPERTY
VdW12
SciTegic.value.DoubleValue
9.770

@<SCITEGIC>MOL_PROPERTY
Bond
SciTegic.value.DoubleValue
0.292

@<SCITEGIC>MOL_PROPERTY
Angle
SciTegic.value.DoubleValue
1.989

@<SCITEGIC>MOL_PROPERTY
Pdih
SciTegic.value.DoubleValue
5.573

@<SCITEGIC>MOL_PROPERTY
Idih
SciTegic.value.DoubleValue
0.000

@<SCITEGIC>MOL_PROPERTY
Tether
SciTegic.value.DoubleValue
0.000

@<TRIPOS>MOLECULE
guest-s14_vm2.mol2 : vm2 ligand conformer 195
          26          25           1
SMALL
USER_CHARGES
 
@<TRIPOS>ATOM
       1    C1      20.160859   20.266190   20.847011 C.3        1 MOL1        -0.2400
       2    H1      21.024282   20.820661   21.236702 H          1 MOL1         0.0971
       3    H2      19.959983   20.634102   19.832547 H          1 MOL1         0.0971
       4    H3      19.290159   20.513979   21.462648 H          1 MOL1         0.0971
       5    C2      20.443222   18.746277   20.821446 C.3        1 MOL1        -0.1385
       6    H4      21.265038   18.570666   20.113165 H          1 MOL1         0.0960
       7    H5      19.576547   18.205155   20.417169 H          1 MOL1         0.0960
       8    C3      20.852684   18.158016   22.196805 C.3        1 MOL1        -0.1409
       9    H6      21.537121   17.319517   22.007423 H          1 MOL1         0.0960
      10    H7      21.441360   18.890361   22.763147 H          1 MOL1         0.0960
      11    C4      19.677500   17.603674   23.047817 C.3        1 MOL1        -0.1409
      12    H8      20.082212   17.046115   23.901217 H          1 MOL1         0.0960
      13    H9      19.138414   16.854115   22.452226 H          1 MOL1         0.0960
      14    C5      18.652343   18.646413   23.562975 C.3        1 MOL1        -0.1409
      15    H10     18.109364   19.066022   22.707032 H          1 MOL1         0.0960
      16    H11     17.890471   18.120328   24.154550 H          1 MOL1         0.0960
      17    C6      19.228038   19.805754   24.420197 C.3        1 MOL1        -0.1450
      18    H12     18.405122   20.499463   24.637348 H          1 MOL1         0.0960
      19    H13     19.964642   20.388474   23.853658 H          1 MOL1         0.0960
      20    C7      19.828167   19.360179   25.769726 C.3        1 MOL1         0.0172
      21    H14     19.863446   20.218561   26.446011 H          1 MOL1         0.0934
      22    H15     19.189990   18.597318   26.223564 H          1 MOL1         0.0934
      23    N1      21.238187   18.812497   25.675024 N.4        1 MOL1        -0.5956
      24    H16     21.587733   18.502342   26.588254 H          1 MOL1         0.3624
      25    H17     21.895460   19.517697   25.326768 H          1 MOL1         0.3624
      26    H18     21.288059   18.010282   25.040585 H          1 MOL1         0.3624
@<TRIPOS>BOND
    1     1     2    1
    2     1     3    1
    3     1     4    1
    4     1     5    1
    5     5     6    1
    6     5     7    1
    7     5     8    1
    8     8     9    1
    9     8    10    1
   10     8    11    1
   11    11    12    1
   12    11    13    1
   13    11    14    1
   14    14    15    1
   15    14    16    1
   16    14    17    1
   17    17    18    1
   18    17    19    1
   19    17    20    1
   20    20    21    1
   21    20    22    1
   22    20    23    1
   23    23    24    1
   24    23    25    1
   25    23    26    1
@<TRIPOS>SUBSTRUCTURE
       1 MOL1            1 RESIDUE      1      MOL     
@<SCITEGIC>MOL_PROPERTY
VM2 Rank
SciTegic.value.IntegerValue
195

@<SCITEGIC>MOL_PROPERTY
Conf_Id
SciTegic.value.IntegerValue
224

@<SCITEGIC>MOL_PROPERTY
Probability
SciTegic.value.DoubleValue
0.00

@<SCITEGIC>MOL_PROPERTY
Sum Probability
SciTegic.value.DoubleValue
100.00

@<SCITEGIC>MOL_PROPERTY
Delta G
SciTegic.value.DoubleValue
7.345

@<SCITEGIC>MOL_PROPERTY
G
SciTegic.value.DoubleValue
55.606

@<SCITEGIC>MOL_PROPERTY
E
SciTegic.value.DoubleValue
21.952

@<SCITEGIC>MOL_PROPERTY
-TS
SciTegic.value.DoubleValue
33.654

@<SCITEGIC>MOL_PROPERTY
U+W
SciTegic.value.DoubleValue
0.490

@<SCITEGIC>MOL_PROPERTY
U
SciTegic.value.DoubleValue
54.731

@<SCITEGIC>MOL_PROPERTY
W
SciTegic.value.DoubleValue
-54.241

@<SCITEGIC>MOL_PROPERTY
W(PB)
SciTegic.value.DoubleValue
-56.390

@<SCITEGIC>MOL_PROPERTY
W(SA)
SciTegic.value.DoubleValue
2.149

@<SCITEGIC>MOL_PROPERTY
Valence
SciTegic.value.DoubleValue
7.253

@<SCITEGIC>MOL_PROPERTY
Coulomb
SciTegic.value.DoubleValue
47.329

@<SCITEGIC>MOL_PROPERTY
VdW
SciTegic.value.DoubleValue
0.149

@<SCITEGIC>MOL_PROPERTY
VdW6
SciTegic.value.DoubleValue
-10.450

@<SCITEGIC>MOL_PROPERTY
VdW12
SciTegic.value.DoubleValue
10.600

@<SCITEGIC>MOL_PROPERTY
Bond
SciTegic.value.DoubleValue
0.329

@<SCITEGIC>MOL_PROPERTY
Angle
SciTegic.value.DoubleValue
2.593

@<SCITEGIC>MOL_PROPERTY
Pdih
SciTegic.value.DoubleValue
4.331

@<SCITEGIC>MOL_PROPERTY
Idih
SciTegic.value.DoubleValue
0.000

@<SCITEGIC>MOL_PROPERTY
Tether
SciTegic.value.DoubleValue
0.000

@<TRIPOS>MOLECULE
guest-s14_vm2.mol2 : vm2 ligand conformer 196
          26          25           1
SMALL
USER_CHARGES
 
@<TRIPOS>ATOM
       1    C1      19.986366   19.038185   19.913458 C.3        1 MOL1        -0.2400
       2    H1      20.584047   18.185413   19.566328 H          1 MOL1         0.0971
       3    H2      18.971097   18.683606   20.130120 H          1 MOL1         0.0971
       4    H3      19.913829   19.756311   19.086475 H          1 MOL1         0.0971
       5    C2      20.630815   19.702722   21.151011 C.3        1 MOL1        -0.1385
       6    H4      19.994734   20.526381   21.499814 H          1 MOL1         0.0960
       7    H5      21.578268   20.167757   20.844743 H          1 MOL1         0.0960
       8    C3      20.924798   18.713366   22.309009 C.3        1 MOL1        -0.1409
       9    H6      21.648742   17.968025   21.951771 H          1 MOL1         0.0960
      10    H7      21.432429   19.264679   23.108532 H          1 MOL1         0.0960
      11    C4      19.686505   17.964280   22.877044 C.3        1 MOL1        -0.1409
      12    H8      20.013377   17.166319   23.556571 H          1 MOL1         0.0960
      13    H9      19.185538   17.438484   22.054197 H          1 MOL1         0.0960
      14    C5      18.647885   18.865234   23.598267 C.3        1 MOL1        -0.1409
      15    H10     18.637869   19.872932   23.165775 H          1 MOL1         0.0960
      16    H11     17.648789   18.454645   23.397125 H          1 MOL1         0.0960
      17    C6      18.804401   18.961360   25.139178 C.3        1 MOL1        -0.1450
      18    H12     18.661135   17.973773   25.597453 H          1 MOL1         0.0960
      19    H13     17.987016   19.588170   25.519697 H          1 MOL1         0.0960
      20    C7      20.131985   19.576222   25.625062 C.3        1 MOL1         0.0172
      21    H14     20.434528   20.385460   24.955140 H          1 MOL1         0.0934
      22    H15     19.986489   19.997481   26.623478 H          1 MOL1         0.0934
      23    N1      21.268245   18.577630   25.727971 N.4        1 MOL1        -0.5956
      24    H16     21.056254   17.830623   26.397523 H          1 MOL1         0.3624
      25    H17     22.138552   19.021561   26.040960 H          1 MOL1         0.3624
      26    H18     21.457959   18.132194   24.825099 H          1 MOL1         0.3624
@<TRIPOS>BOND
    1     1     2    1
    2     1     3    1
    3     1     4    1
    4     1     5    1
    5     5     6    1
    6     5     7    1
    7     5     8    1
    8     8     9    1
    9     8    10    1
   10     8    11    1
   11    11    12    1
   12    11    13    1
   13    11    14    1
   14    14    15    1
   15    14    16    1
   16    14    17    1
   17    17    18    1
   18    17    19    1
   19    17    20    1
   20    20    21    1
   21    20    22    1
   22    20    23    1
   23    23    24    1
   24    23    25    1
   25    23    26    1
@<TRIPOS>SUBSTRUCTURE
       1 MOL1            1 RESIDUE      1      MOL     
@<SCITEGIC>MOL_PROPERTY
VM2 Rank
SciTegic.value.IntegerValue
196

@<SCITEGIC>MOL_PROPERTY
Conf_Id
SciTegic.value.IntegerValue
247

@<SCITEGIC>MOL_PROPERTY
Probability
SciTegic.value.DoubleValue
0.00

@<SCITEGIC>MOL_PROPERTY
Sum Probability
SciTegic.value.DoubleValue
100.00

@<SCITEGIC>MOL_PROPERTY
Delta G
SciTegic.value.DoubleValue
7.350

@<SCITEGIC>MOL_PROPERTY
G
SciTegic.value.DoubleValue
55.611

@<SCITEGIC>MOL_PROPERTY
E
SciTegic.value.DoubleValue
22.531

@<SCITEGIC>MOL_PROPERTY
-TS
SciTegic.value.DoubleValue
33.080

@<SCITEGIC>MOL_PROPERTY
U+W
SciTegic.value.DoubleValue
1.069

@<SCITEGIC>MOL_PROPERTY
U
SciTegic.value.DoubleValue
55.284

@<SCITEGIC>MOL_PROPERTY
W
SciTegic.value.DoubleValue
-54.215

@<SCITEGIC>MOL_PROPERTY
W(PB)
SciTegic.value.DoubleValue
-56.410

@<SCITEGIC>MOL_PROPERTY
W(SA)
SciTegic.value.DoubleValue
2.195

@<SCITEGIC>MOL_PROPERTY
Valence
SciTegic.value.DoubleValue
7.530

@<SCITEGIC>MOL_PROPERTY
Coulomb
SciTegic.value.DoubleValue
47.065

@<SCITEGIC>MOL_PROPERTY
VdW
SciTegic.value.DoubleValue
0.689

@<SCITEGIC>MOL_PROPERTY
VdW6
SciTegic.value.DoubleValue
-9.872

@<SCITEGIC>MOL_PROPERTY
VdW12
SciTegic.value.DoubleValue
10.561

@<SCITEGIC>MOL_PROPERTY
Bond
SciTegic.value.DoubleValue
0.348

@<SCITEGIC>MOL_PROPERTY
Angle
SciTegic.value.DoubleValue
2.259

@<SCITEGIC>MOL_PROPERTY
Pdih
SciTegic.value.DoubleValue
4.923

@<SCITEGIC>MOL_PROPERTY
Idih
SciTegic.value.DoubleValue
0.000

@<SCITEGIC>MOL_PROPERTY
Tether
SciTegic.value.DoubleValue
0.000

@<TRIPOS>MOLECULE
guest-s14_vm2.mol2 : vm2 ligand conformer 197
          26          25           1
SMALL
USER_CHARGES
 
@<TRIPOS>ATOM
       1    C1      20.072453   19.095103   19.916403 C.3        1 MOL1        -0.2400
       2    H1      19.479878   19.470534   19.072144 H          1 MOL1         0.0971
       3    H2      20.787125   19.880842   20.190803 H          1 MOL1         0.0971
       4    H3      20.636728   18.220355   19.568045 H          1 MOL1         0.0971
       5    C2      19.151421   18.727540   21.101754 C.3        1 MOL1        -0.1385
       6    H4      18.366158   18.050385   20.737682 H          1 MOL1         0.0960
       7    H5      18.628867   19.626000   21.454435 H          1 MOL1         0.0960
       8    C3      19.890667   18.031584   22.274514 C.3        1 MOL1        -0.1409
       9    H6      19.147713   17.758401   23.032311 H          1 MOL1         0.0960
      10    H7      20.307170   17.083610   21.906930 H          1 MOL1         0.0960
      11    C4      21.038942   18.855694   22.922188 C.3        1 MOL1        -0.1409
      12    H8      21.756950   19.133468   22.140000 H          1 MOL1         0.0960
      13    H9      21.611660   18.219769   23.609892 H          1 MOL1         0.0960
      14    C5      20.586376   20.142934   23.663007 C.3        1 MOL1        -0.1409
      15    H10     21.365648   20.904456   23.521387 H          1 MOL1         0.0960
      16    H11     19.685165   20.563231   23.200650 H          1 MOL1         0.0960
      17    C6      20.364678   19.989855   25.191264 C.3        1 MOL1        -0.1450
      18    H12     20.092655   20.976182   25.589974 H          1 MOL1         0.0960
      19    H13     21.306520   19.717576   25.685900 H          1 MOL1         0.0960
      20    C7      19.255474   18.998504   25.595622 C.3        1 MOL1         0.0172
      21    H14     18.879208   19.267788   26.586265 H          1 MOL1         0.0934
      22    H15     18.424699   19.060588   24.887704 H          1 MOL1         0.0934
      23    N1      19.720988   17.557786   25.676250 N.4        1 MOL1        -0.5956
      24    H16     20.097673   17.235442   24.779708 H          1 MOL1         0.3624
      25    H17     18.956555   16.924194   25.934468 H          1 MOL1         0.3624
      26    H18     20.458991   17.437094   26.377707 H          1 MOL1         0.3624
@<TRIPOS>BOND
    1     1     2    1
    2     1     3    1
    3     1     4    1
    4     1     5    1
    5     5     6    1
    6     5     7    1
    7     5     8    1
    8     8     9    1
    9     8    10    1
   10     8    11    1
   11    11    12    1
   12    11    13    1
   13    11    14    1
   14    14    15    1
   15    14    16    1
   16    14    17    1
   17    17    18    1
   18    17    19    1
   19    17    20    1
   20    20    21    1
   21    20    22    1
   22    20    23    1
   23    23    24    1
   24    23    25    1
   25    23    26    1
@<TRIPOS>SUBSTRUCTURE
       1 MOL1            1 RESIDUE      1      MOL     
@<SCITEGIC>MOL_PROPERTY
VM2 Rank
SciTegic.value.IntegerValue
197

@<SCITEGIC>MOL_PROPERTY
Conf_Id
SciTegic.value.IntegerValue
448

@<SCITEGIC>MOL_PROPERTY
Probability
SciTegic.value.DoubleValue
0.00

@<SCITEGIC>MOL_PROPERTY
Sum Probability
SciTegic.value.DoubleValue
100.00

@<SCITEGIC>MOL_PROPERTY
Delta G
SciTegic.value.DoubleValue
7.352

@<SCITEGIC>MOL_PROPERTY
G
SciTegic.value.DoubleValue
55.613

@<SCITEGIC>MOL_PROPERTY
E
SciTegic.value.DoubleValue
22.532

@<SCITEGIC>MOL_PROPERTY
-TS
SciTegic.value.DoubleValue
33.081

@<SCITEGIC>MOL_PROPERTY
U+W
SciTegic.value.DoubleValue
1.070

@<SCITEGIC>MOL_PROPERTY
U
SciTegic.value.DoubleValue
55.284

@<SCITEGIC>MOL_PROPERTY
W
SciTegic.value.DoubleValue
-54.214

@<SCITEGIC>MOL_PROPERTY
W(PB)
SciTegic.value.DoubleValue
-56.421

@<SCITEGIC>MOL_PROPERTY
W(SA)
SciTegic.value.DoubleValue
2.206

@<SCITEGIC>MOL_PROPERTY
Valence
SciTegic.value.DoubleValue
7.530

@<SCITEGIC>MOL_PROPERTY
Coulomb
SciTegic.value.DoubleValue
47.065

@<SCITEGIC>MOL_PROPERTY
VdW
SciTegic.value.DoubleValue
0.689

@<SCITEGIC>MOL_PROPERTY
VdW6
SciTegic.value.DoubleValue
-9.872

@<SCITEGIC>MOL_PROPERTY
VdW12
SciTegic.value.DoubleValue
10.561

@<SCITEGIC>MOL_PROPERTY
Bond
SciTegic.value.DoubleValue
0.348

@<SCITEGIC>MOL_PROPERTY
Angle
SciTegic.value.DoubleValue
2.260

@<SCITEGIC>MOL_PROPERTY
Pdih
SciTegic.value.DoubleValue
4.922

@<SCITEGIC>MOL_PROPERTY
Idih
SciTegic.value.DoubleValue
0.000

@<SCITEGIC>MOL_PROPERTY
Tether
SciTegic.value.DoubleValue
0.000

@<TRIPOS>MOLECULE
guest-s14_vm2.mol2 : vm2 ligand conformer 198
          26          25           1
SMALL
USER_CHARGES
 
@<TRIPOS>ATOM
       1    C1      18.832834   19.390591   20.802651 C.3        1 MOL1        -0.2400
       2    H1      18.621048   19.751281   19.787813 H          1 MOL1         0.0971
       3    H2      17.966236   18.804403   21.134597 H          1 MOL1         0.0971
       4    H3      18.918742   20.269127   21.450202 H          1 MOL1         0.0971
       5    C2      20.118967   18.532501   20.810623 C.3        1 MOL1        -0.1385
       6    H4      20.975277   19.127407   20.463929 H          1 MOL1         0.0960
       7    H5      19.990318   17.730218   20.070574 H          1 MOL1         0.0960
       8    C3      20.434315   17.882185   22.182833 C.3        1 MOL1        -0.1409
       9    H6      19.504067   17.613085   22.698426 H          1 MOL1         0.0960
      10    H7      20.944251   16.928636   21.987618 H          1 MOL1         0.0960
      11    C4      21.365585   18.716661   23.104221 C.3        1 MOL1        -0.1409
      12    H8      22.293521   18.934309   22.557646 H          1 MOL1         0.0960
      13    H9      21.678885   18.098851   23.954579 H          1 MOL1         0.0960
      14    C5      20.786807   20.053713   23.634262 C.3        1 MOL1        -0.1409
      15    H10     21.541819   20.527750   24.276463 H          1 MOL1         0.0960
      16    H11     20.654588   20.744140   22.792025 H          1 MOL1         0.0960
      17    C6      19.456018   19.956070   24.427855 C.3        1 MOL1        -0.1450
      18    H12     18.657735   19.526893   23.810062 H          1 MOL1         0.0960
      19    H13     19.132219   20.978826   24.661735 H          1 MOL1         0.0960
      20    C7      19.566664   19.187680   25.760991 C.3        1 MOL1         0.0172
      21    H14     20.496997   19.458776   26.267137 H          1 MOL1         0.0934
      22    H15     18.733108   19.473227   26.408348 H          1 MOL1         0.0934
      23    N1      19.519811   17.679599   25.617565 N.4        1 MOL1        -0.5956
      24    H16     20.266345   17.336737   25.006273 H          1 MOL1         0.3624
      25    H17     18.630005   17.364969   25.217750 H          1 MOL1         0.3624
      26    H18     19.624898   17.208152   26.522586 H          1 MOL1         0.3624
@<TRIPOS>BOND
    1     1     2    1
    2     1     3    1
    3     1     4    1
    4     1     5    1
    5     5     6    1
    6     5     7    1
    7     5     8    1
    8     8     9    1
    9     8    10    1
   10     8    11    1
   11    11    12    1
   12    11    13    1
   13    11    14    1
   14    14    15    1
   15    14    16    1
   16    14    17    1
   17    17    18    1
   18    17    19    1
   19    17    20    1
   20    20    21    1
   21    20    22    1
   22    20    23    1
   23    23    24    1
   24    23    25    1
   25    23    26    1
@<TRIPOS>SUBSTRUCTURE
       1 MOL1            1 RESIDUE      1      MOL     
@<SCITEGIC>MOL_PROPERTY
VM2 Rank
SciTegic.value.IntegerValue
198

@<SCITEGIC>MOL_PROPERTY
Conf_Id
SciTegic.value.IntegerValue
576

@<SCITEGIC>MOL_PROPERTY
Probability
SciTegic.value.DoubleValue
0.00

@<SCITEGIC>MOL_PROPERTY
Sum Probability
SciTegic.value.DoubleValue
100.00

@<SCITEGIC>MOL_PROPERTY
Delta G
SciTegic.value.DoubleValue
7.359

@<SCITEGIC>MOL_PROPERTY
G
SciTegic.value.DoubleValue
55.620

@<SCITEGIC>MOL_PROPERTY
E
SciTegic.value.DoubleValue
21.966

@<SCITEGIC>MOL_PROPERTY
-TS
SciTegic.value.DoubleValue
33.654

@<SCITEGIC>MOL_PROPERTY
U+W
SciTegic.value.DoubleValue
0.504

@<SCITEGIC>MOL_PROPERTY
U
SciTegic.value.DoubleValue
54.731

@<SCITEGIC>MOL_PROPERTY
W
SciTegic.value.DoubleValue
-54.226

@<SCITEGIC>MOL_PROPERTY
W(PB)
SciTegic.value.DoubleValue
-56.357

@<SCITEGIC>MOL_PROPERTY
W(SA)
SciTegic.value.DoubleValue
2.131

@<SCITEGIC>MOL_PROPERTY
Valence
SciTegic.value.DoubleValue
7.253

@<SCITEGIC>MOL_PROPERTY
Coulomb
SciTegic.value.DoubleValue
47.329

@<SCITEGIC>MOL_PROPERTY
VdW
SciTegic.value.DoubleValue
0.149

@<SCITEGIC>MOL_PROPERTY
VdW6
SciTegic.value.DoubleValue
-10.450

@<SCITEGIC>MOL_PROPERTY
VdW12
SciTegic.value.DoubleValue
10.600

@<SCITEGIC>MOL_PROPERTY
Bond
SciTegic.value.DoubleValue
0.329

@<SCITEGIC>MOL_PROPERTY
Angle
SciTegic.value.DoubleValue
2.592

@<SCITEGIC>MOL_PROPERTY
Pdih
SciTegic.value.DoubleValue
4.331

@<SCITEGIC>MOL_PROPERTY
Idih
SciTegic.value.DoubleValue
0.000

@<SCITEGIC>MOL_PROPERTY
Tether
SciTegic.value.DoubleValue
0.000

@<TRIPOS>MOLECULE
guest-s14_vm2.mol2 : vm2 ligand conformer 199
          26          25           1
SMALL
USER_CHARGES
 
@<TRIPOS>ATOM
       1    C1      20.393483   18.514950   19.904333 C.3        1 MOL1        -0.2400
       2    H1      19.687364   17.705833   20.129093 H          1 MOL1         0.0971
       3    H2      19.833761   19.345159   19.454322 H          1 MOL1         0.0971
       4    H3      21.098528   18.138571   19.151883 H          1 MOL1         0.0971
       5    C2      21.148973   18.976307   21.171015 C.3        1 MOL1        -0.1385
       6    H4      21.920695   19.702225   20.878697 H          1 MOL1         0.0960
       7    H5      21.681412   18.122412   21.612031 H          1 MOL1         0.0960
       8    C3      20.227711   19.628586   22.229881 C.3        1 MOL1        -0.1409
       9    H6      20.849316   20.026134   23.040784 H          1 MOL1         0.0960
      10    H7      19.728120   20.501395   21.787065 H          1 MOL1         0.0960
      11    C4      19.155631   18.660171   22.793489 C.3        1 MOL1        -0.1409
      12    H8      19.594620   17.685637   23.044738 H          1 MOL1         0.0960
      13    H9      18.422979   18.460808   21.999815 H          1 MOL1         0.0960
      14    C5      18.397192   19.237251   24.016198 C.3        1 MOL1        -0.1409
      15    H10     18.366628   20.334216   23.959531 H          1 MOL1         0.0960
      16    H11     17.349895   18.910975   23.951380 H          1 MOL1         0.0960
      17    C6      18.935931   18.792435   25.402494 C.3        1 MOL1        -0.1450
      18    H12     18.850771   17.702840   25.509300 H          1 MOL1         0.0960
      19    H13     18.278050   19.220101   26.170681 H          1 MOL1         0.0960
      20    C7      20.378068   19.236178   25.720964 C.3        1 MOL1         0.0172
      21    H14     20.534149   20.263401   25.381047 H          1 MOL1         0.0934
      22    H15     20.529441   19.209867   26.803493 H          1 MOL1         0.0934
      23    N1      21.444011   18.353123   25.102627 N.4        1 MOL1        -0.5956
      24    H16     22.389281   18.685312   25.323422 H          1 MOL1         0.3624
      25    H17     21.356585   18.326254   24.081614 H          1 MOL1         0.3624
      26    H18     21.378943   17.387503   25.441318 H          1 MOL1         0.3624
@<TRIPOS>BOND
    1     1     2    1
    2     1     3    1
    3     1     4    1
    4     1     5    1
    5     5     6    1
    6     5     7    1
    7     5     8    1
    8     8     9    1
    9     8    10    1
   10     8    11    1
   11    11    12    1
   12    11    13    1
   13    11    14    1
   14    14    15    1
   15    14    16    1
   16    14    17    1
   17    17    18    1
   18    17    19    1
   19    17    20    1
   20    20    21    1
   21    20    22    1
   22    20    23    1
   23    23    24    1
   24    23    25    1
   25    23    26    1
@<TRIPOS>SUBSTRUCTURE
       1 MOL1            1 RESIDUE      1      MOL     
@<SCITEGIC>MOL_PROPERTY
VM2 Rank
SciTegic.value.IntegerValue
199

@<SCITEGIC>MOL_PROPERTY
Conf_Id
SciTegic.value.IntegerValue
810

@<SCITEGIC>MOL_PROPERTY
Probability
SciTegic.value.DoubleValue
0.00

@<SCITEGIC>MOL_PROPERTY
Sum Probability
SciTegic.value.DoubleValue
100.00

@<SCITEGIC>MOL_PROPERTY
Delta G
SciTegic.value.DoubleValue
7.414

@<SCITEGIC>MOL_PROPERTY
G
SciTegic.value.DoubleValue
55.675

@<SCITEGIC>MOL_PROPERTY
E
SciTegic.value.DoubleValue
22.372

@<SCITEGIC>MOL_PROPERTY
-TS
SciTegic.value.DoubleValue
33.303

@<SCITEGIC>MOL_PROPERTY
U+W
SciTegic.value.DoubleValue
0.910

@<SCITEGIC>MOL_PROPERTY
U
SciTegic.value.DoubleValue
54.367

@<SCITEGIC>MOL_PROPERTY
W
SciTegic.value.DoubleValue
-53.457

@<SCITEGIC>MOL_PROPERTY
W(PB)
SciTegic.value.DoubleValue
-55.665

@<SCITEGIC>MOL_PROPERTY
W(SA)
SciTegic.value.DoubleValue
2.207

@<SCITEGIC>MOL_PROPERTY
Valence
SciTegic.value.DoubleValue
6.709

@<SCITEGIC>MOL_PROPERTY
Coulomb
SciTegic.value.DoubleValue
47.139

@<SCITEGIC>MOL_PROPERTY
VdW
SciTegic.value.DoubleValue
0.519

@<SCITEGIC>MOL_PROPERTY
VdW6
SciTegic.value.DoubleValue
-9.576

@<SCITEGIC>MOL_PROPERTY
VdW12
SciTegic.value.DoubleValue
10.096

@<SCITEGIC>MOL_PROPERTY
Bond
SciTegic.value.DoubleValue
0.272

@<SCITEGIC>MOL_PROPERTY
Angle
SciTegic.value.DoubleValue
1.653

@<SCITEGIC>MOL_PROPERTY
Pdih
SciTegic.value.DoubleValue
4.785

@<SCITEGIC>MOL_PROPERTY
Idih
SciTegic.value.DoubleValue
0.000

@<SCITEGIC>MOL_PROPERTY
Tether
SciTegic.value.DoubleValue
0.000

@<TRIPOS>MOLECULE
guest-s14_vm2.mol2 : vm2 ligand conformer 200
          26          25           1
SMALL
USER_CHARGES
 
@<TRIPOS>ATOM
       1    C1      19.381312   17.865951   20.217896 C.3        1 MOL1        -0.2400
       2    H1      19.054831   16.821665   20.128964 H          1 MOL1         0.0971
       3    H2      18.510578   18.508206   20.031935 H          1 MOL1         0.0971
       4    H3      20.120732   18.055660   19.428905 H          1 MOL1         0.0971
       5    C2      19.978849   18.133302   21.615464 C.3        1 MOL1        -0.1385
       6    H4      20.827642   17.455096   21.779292 H          1 MOL1         0.0960
       7    H5      19.224499   17.891360   22.371386 H          1 MOL1         0.0960
       8    C3      20.446703   19.600599   21.761533 C.3        1 MOL1        -0.1409
       9    H6      21.163649   19.807536   20.954833 H          1 MOL1         0.0960
      10    H7      19.604103   20.286274   21.597545 H          1 MOL1         0.0960
      11    C4      21.139242   19.919235   23.113266 C.3        1 MOL1        -0.1409
      12    H8      21.914747   20.671296   22.911632 H          1 MOL1         0.0960
      13    H9      21.686982   19.048335   23.490154 H          1 MOL1         0.0960
      14    C5      20.209913   20.520926   24.202063 C.3        1 MOL1        -0.1409
      15    H10     20.831759   20.875193   25.035861 H          1 MOL1         0.0960
      16    H11     19.735461   21.422014   23.789523 H          1 MOL1         0.0960
      17    C6      19.098923   19.602821   24.775314 C.3        1 MOL1        -0.1450
      18    H12     18.460331   19.204251   23.979360 H          1 MOL1         0.0960
      19    H13     18.438299   20.232247   25.386183 H          1 MOL1         0.0960
      20    C7      19.614148   18.471760   25.690788 C.3        1 MOL1         0.0172
      21    H14     20.368603   18.869569   26.374715 H          1 MOL1         0.0934
      22    H15     18.782210   18.093215   26.290815 H          1 MOL1         0.0934
      23    N1      20.211909   17.284405   24.964676 N.4        1 MOL1        -0.5956
      24    H16     20.559691   16.575922   25.620190 H          1 MOL1         0.3624
      25    H17     20.999405   17.563211   24.373251 H          1 MOL1         0.3624
      26    H18     19.523170   16.822620   24.362718 H          1 MOL1         0.3624
@<TRIPOS>BOND
    1     1     2    1
    2     1     3    1
    3     1     4    1
    4     1     5    1
    5     5     6    1
    6     5     7    1
    7     5     8    1
    8     8     9    1
    9     8    10    1
   10     8    11    1
   11    11    12    1
   12    11    13    1
   13    11    14    1
   14    14    15    1
   15    14    16    1
   16    14    17    1
   17    17    18    1
   18    17    19    1
   19    17    20    1
   20    20    21    1
   21    20    22    1
   22    20    23    1
   23    23    24    1
   24    23    25    1
   25    23    26    1
@<TRIPOS>SUBSTRUCTURE
       1 MOL1            1 RESIDUE      1      MOL     
@<SCITEGIC>MOL_PROPERTY
VM2 Rank
SciTegic.value.IntegerValue
200

@<SCITEGIC>MOL_PROPERTY
Conf_Id
SciTegic.value.IntegerValue
278

@<SCITEGIC>MOL_PROPERTY
Probability
SciTegic.value.DoubleValue
0.00

@<SCITEGIC>MOL_PROPERTY
Sum Probability
SciTegic.value.DoubleValue
100.00

@<SCITEGIC>MOL_PROPERTY
Delta G
SciTegic.value.DoubleValue
7.701

@<SCITEGIC>MOL_PROPERTY
G
SciTegic.value.DoubleValue
55.962

@<SCITEGIC>MOL_PROPERTY
E
SciTegic.value.DoubleValue
22.966

@<SCITEGIC>MOL_PROPERTY
-TS
SciTegic.value.DoubleValue
32.996

@<SCITEGIC>MOL_PROPERTY
U+W
SciTegic.value.DoubleValue
1.504

@<SCITEGIC>MOL_PROPERTY
U
SciTegic.value.DoubleValue
55.487

@<SCITEGIC>MOL_PROPERTY
W
SciTegic.value.DoubleValue
-53.983

@<SCITEGIC>MOL_PROPERTY
W(PB)
SciTegic.value.DoubleValue
-56.187

@<SCITEGIC>MOL_PROPERTY
W(SA)
SciTegic.value.DoubleValue
2.203

@<SCITEGIC>MOL_PROPERTY
Valence
SciTegic.value.DoubleValue
7.292

@<SCITEGIC>MOL_PROPERTY
Coulomb
SciTegic.value.DoubleValue
48.136

@<SCITEGIC>MOL_PROPERTY
VdW
SciTegic.value.DoubleValue
0.060

@<SCITEGIC>MOL_PROPERTY
VdW6
SciTegic.value.DoubleValue
-9.397

@<SCITEGIC>MOL_PROPERTY
VdW12
SciTegic.value.DoubleValue
9.457

@<SCITEGIC>MOL_PROPERTY
Bond
SciTegic.value.DoubleValue
0.292

@<SCITEGIC>MOL_PROPERTY
Angle
SciTegic.value.DoubleValue
2.593

@<SCITEGIC>MOL_PROPERTY
Pdih
SciTegic.value.DoubleValue
4.407

@<SCITEGIC>MOL_PROPERTY
Idih
SciTegic.value.DoubleValue
0.000

@<SCITEGIC>MOL_PROPERTY
Tether
SciTegic.value.DoubleValue
0.000

@<TRIPOS>MOLECULE
guest-s14_vm2.mol2 : vm2 ligand conformer 201
          26          25           1
SMALL
USER_CHARGES
 
@<TRIPOS>ATOM
       1    C1      18.860339   17.853376   20.930645 C.3        1 MOL1        -0.2400
       2    H1      17.957045   18.028820   21.528493 H          1 MOL1         0.0971
       3    H2      18.538568   17.478065   19.950433 H          1 MOL1         0.0971
       4    H3      19.447690   17.058842   21.406697 H          1 MOL1         0.0971
       5    C2      19.680446   19.152945   20.761965 C.3        1 MOL1        -0.1385
       6    H4      19.073188   19.881598   20.206738 H          1 MOL1         0.0960
       7    H5      20.565508   18.955645   20.140938 H          1 MOL1         0.0960
       8    C3      20.114332   19.788431   22.104191 C.3        1 MOL1        -0.1409
       9    H6      20.524294   20.786758   21.897194 H          1 MOL1         0.0960
      10    H7      19.232368   19.958166   22.732635 H          1 MOL1         0.0960
      11    C4      21.192907   18.964126   22.854665 C.3        1 MOL1        -0.1409
      12    H8      22.098689   18.951165   22.232632 H          1 MOL1         0.0960
      13    H9      20.898825   17.913634   22.966917 H          1 MOL1         0.0960
      14    C5      21.556791   19.559454   24.238981 C.3        1 MOL1        -0.1409
      15    H10     22.634557   19.416429   24.398480 H          1 MOL1         0.0960
      16    H11     21.402452   20.647380   24.236336 H          1 MOL1         0.0960
      17    C6      20.820240   18.923372   25.448396 C.3        1 MOL1        -0.1450
      18    H12     21.200970   19.399730   26.361606 H          1 MOL1         0.0960
      19    H13     21.082856   17.860564   25.534187 H          1 MOL1         0.0960
      20    C7      19.286318   19.081435   25.440836 C.3        1 MOL1         0.0172
      21    H14     18.907612   18.944669   26.457379 H          1 MOL1         0.0934
      22    H15     19.018384   20.088675   25.110975 H          1 MOL1         0.0934
      23    N1      18.569626   18.075860   24.561321 N.4        1 MOL1        -0.5956
      24    H16     17.553506   18.218307   24.571430 H          1 MOL1         0.3624
      25    H17     18.740540   17.113413   24.871449 H          1 MOL1         0.3624
      26    H18     18.884556   18.146892   23.587386 H          1 MOL1         0.3624
@<TRIPOS>BOND
    1     1     2    1
    2     1     3    1
    3     1     4    1
    4     1     5    1
    5     5     6    1
    6     5     7    1
    7     5     8    1
    8     8     9    1
    9     8    10    1
   10     8    11    1
   11    11    12    1
   12    11    13    1
   13    11    14    1
   14    14    15    1
   15    14    16    1
   16    14    17    1
   17    17    18    1
   18    17    19    1
   19    17    20    1
   20    20    21    1
   21    20    22    1
   22    20    23    1
   23    23    24    1
   24    23    25    1
   25    23    26    1
@<TRIPOS>SUBSTRUCTURE
       1 MOL1            1 RESIDUE      1      MOL     
@<SCITEGIC>MOL_PROPERTY
VM2 Rank
SciTegic.value.IntegerValue
201

@<SCITEGIC>MOL_PROPERTY
Conf_Id
SciTegic.value.IntegerValue
225

@<SCITEGIC>MOL_PROPERTY
Probability
SciTegic.value.DoubleValue
0.00

@<SCITEGIC>MOL_PROPERTY
Sum Probability
SciTegic.value.DoubleValue
100.00

@<SCITEGIC>MOL_PROPERTY
Delta G
SciTegic.value.DoubleValue
8.481

@<SCITEGIC>MOL_PROPERTY
G
SciTegic.value.DoubleValue
56.742

@<SCITEGIC>MOL_PROPERTY
E
SciTegic.value.DoubleValue
23.152

@<SCITEGIC>MOL_PROPERTY
-TS
SciTegic.value.DoubleValue
33.591

@<SCITEGIC>MOL_PROPERTY
U+W
SciTegic.value.DoubleValue
1.690

@<SCITEGIC>MOL_PROPERTY
U
SciTegic.value.DoubleValue
54.447

@<SCITEGIC>MOL_PROPERTY
W
SciTegic.value.DoubleValue
-52.757

@<SCITEGIC>MOL_PROPERTY
W(PB)
SciTegic.value.DoubleValue
-54.933

@<SCITEGIC>MOL_PROPERTY
W(SA)
SciTegic.value.DoubleValue
2.177

@<SCITEGIC>MOL_PROPERTY
Valence
SciTegic.value.DoubleValue
6.776

@<SCITEGIC>MOL_PROPERTY
Coulomb
SciTegic.value.DoubleValue
47.395

@<SCITEGIC>MOL_PROPERTY
VdW
SciTegic.value.DoubleValue
0.275

@<SCITEGIC>MOL_PROPERTY
VdW6
SciTegic.value.DoubleValue
-10.113

@<SCITEGIC>MOL_PROPERTY
VdW12
SciTegic.value.DoubleValue
10.389

@<SCITEGIC>MOL_PROPERTY
Bond
SciTegic.value.DoubleValue
0.270

@<SCITEGIC>MOL_PROPERTY
Angle
SciTegic.value.DoubleValue
1.774

@<SCITEGIC>MOL_PROPERTY
Pdih
SciTegic.value.DoubleValue
4.732

@<SCITEGIC>MOL_PROPERTY
Idih
SciTegic.value.DoubleValue
0.000

@<SCITEGIC>MOL_PROPERTY
Tether
SciTegic.value.DoubleValue
0.000

