VeraChem MOL file


 26 25  0  0  0  0  0  0  0  0999 V2000     
   19.9052   19.3107   18.8162 C   0  0  0  0  0  0  0  0  0  0  0  0
   20.2945   20.3369   18.7943 H   0  0  0  0  0  0  0  0  0  0  0  0
   20.2787   18.7895   17.9252 H   0  0  0  0  0  0  0  0  0  0  0  0
   18.8108   19.3585   18.7447 H   0  0  0  0  0  0  0  0  0  0  0  0
   20.3457   18.5776   20.1010 C   0  0  0  0  0  0  0  0  0  0  0  0
   21.4427   18.5157   20.1275 H   0  0  0  0  0  0  0  0  0  0  0  0
   19.9704   17.5449   20.0784 H   0  0  0  0  0  0  0  0  0  0  0  0
   19.8327   19.2912   21.3714 C   0  0  0  0  0  0  0  0  0  0  0  0
   20.2083   20.3237   21.3883 H   0  0  0  0  0  0  0  0  0  0  0  0
   18.7360   19.3526   21.3392 H   0  0  0  0  0  0  0  0  0  0  0  0
   20.2719   18.5602   22.6602 C   0  0  0  0  0  0  0  0  0  0  0  0
   21.3686   18.4989   22.6913 H   0  0  0  0  0  0  0  0  0  0  0  0
   19.8962   17.5277   22.6422 H   0  0  0  0  0  0  0  0  0  0  0  0
   19.7583   19.2745   23.9308 C   0  0  0  0  0  0  0  0  0  0  0  0
   20.1340   20.3071   23.9492 H   0  0  0  0  0  0  0  0  0  0  0  0
   18.6614   19.3359   23.9000 H   0  0  0  0  0  0  0  0  0  0  0  0
   20.1968   18.5443   25.2193 C   0  0  0  0  0  0  0  0  0  0  0  0
   21.2928   18.4855   25.2564 H   0  0  0  0  0  0  0  0  0  0  0  0
   19.8188   17.5133   25.2071 H   0  0  0  0  0  0  0  0  0  0  0  0
   19.6802   19.2637   26.4777 C   0  0  0  0  0  0  0  0  0  0  0  0
   20.0676   20.2859   26.5026 H   0  0  0  0  0  0  0  0  0  0  0  0
   18.5881   19.3102   26.4531 H   0  0  0  0  0  0  0  0  0  0  0  0
   20.0901   18.5768   27.7644 N   0  3  0  0  0  0  0  0  0  0  0  0
   19.7359   19.0720   28.5901 H   0  0  0  0  0  0  0  0  0  0  0  0
   21.1095   18.5250   27.8622 H   0  0  0  0  0  0  0  0  0  0  0  0
   19.7328   17.6172   27.8161 H   0  0  0  0  0  0  0  0  0  0  0  0
  1  2  1  0  0  0  0
  1  3  1  0  0  0  0
  1  4  1  0  0  0  0
  1  5  1  0  0  0  0
  5  6  1  0  0  0  0
  5  7  1  0  0  0  0
  5  8  1  0  0  0  0
  8  9  1  0  0  0  0
  8 10  1  0  0  0  0
  8 11  1  0  0  0  0
 11 12  1  0  0  0  0
 11 13  1  0  0  0  0
 11 14  1  0  0  0  0
 14 15  1  0  0  0  0
 14 16  1  0  0  0  0
 14 17  1  0  0  0  0
 17 18  1  0  0  0  0
 17 19  1  0  0  0  0
 17 20  1  0  0  0  0
 20 21  1  0  0  0  0
 20 22  1  0  0  0  0
 20 23  1  0  0  0  0
 23 24  1  0  0  0  0
 23 25  1  0  0  0  0
 23 26  1  0  0  0  0
M  END
> <VM2 Rank>
1

> <Conf_Id>
316

> <Probability>
7.71

> <Sum Probability>
7.71

> <Delta G>
0.000

> <G>
48.261

> <E>
15.909

> <-TS>
32.352

> <U+W>
-5.553

> <U>
47.192

> <W>
-52.743

> <W(PB)>
-55.134

> <W(SA)>
2.391

> <Valence>
2.156

> <Coulomb>
44.449

> <VdW>
0.587

> <VdW6>
-5.761

> <VdW12>
6.348

> <Bond>
0.129

> <Angle>
0.393

> <Pdih>
1.634

> <Idih>
0.000

> <Tether>
0.000

$$$$
VeraChem MOL file


 26 25  0  0  0  0  0  0  0  0999 V2000     
   20.1408   19.6499   19.0008 C   0  0  0  0  0  0  0  0  0  0  0  0
   19.1347   20.0853   18.9420 H   0  0  0  0  0  0  0  0  0  0  0  0
   20.8621   20.4696   19.1149 H   0  0  0  0  0  0  0  0  0  0  0  0
   20.3477   19.1494   18.0460 H   0  0  0  0  0  0  0  0  0  0  0  0
   20.2456   18.6516   20.1733 C   0  0  0  0  0  0  0  0  0  0  0  0
   21.2510   18.2079   20.1855 H   0  0  0  0  0  0  0  0  0  0  0  0
   19.5370   17.8267   20.0140 H   0  0  0  0  0  0  0  0  0  0  0  0
   19.9586   19.3310   21.5306 C   0  0  0  0  0  0  0  0  0  0  0  0
   20.6678   20.1562   21.6841 H   0  0  0  0  0  0  0  0  0  0  0  0
   18.9536   19.7749   21.5127 H   0  0  0  0  0  0  0  0  0  0  0  0
   20.0625   18.3343   22.7072 C   0  0  0  0  0  0  0  0  0  0  0  0
   21.0678   17.8909   22.7245 H   0  0  0  0  0  0  0  0  0  0  0  0
   19.3536   17.5091   22.5519 H   0  0  0  0  0  0  0  0  0  0  0  0
   19.7748   19.0142   24.0649 C   0  0  0  0  0  0  0  0  0  0  0  0
   20.4826   19.8408   24.2124 H   0  0  0  0  0  0  0  0  0  0  0  0
   18.7683   19.4551   24.0484 H   0  0  0  0  0  0  0  0  0  0  0  0
   19.8801   18.0151   25.2413 C   0  0  0  0  0  0  0  0  0  0  0  0
   20.8922   17.5914   25.2861 H   0  0  0  0  0  0  0  0  0  0  0  0
   19.1959   17.1741   25.0665 H   0  0  0  0  0  0  0  0  0  0  0  0
   19.5295   18.6544   26.5987 C   0  0  0  0  0  0  0  0  0  0  0  0
   18.5244   19.0826   26.5554 H   0  0  0  0  0  0  0  0  0  0  0  0
   19.5390   17.8848   27.3753 H   0  0  0  0  0  0  0  0  0  0  0  0
   20.4891   19.7484   27.0243 N   0  3  0  0  0  0  0  0  0  0  0  0
   20.2355   20.1437   27.9363 H   0  0  0  0  0  0  0  0  0  0  0  0
   20.5021   20.5238   26.3545 H   0  0  0  0  0  0  0  0  0  0  0  0
   21.4504   19.4014   27.1054 H   0  0  0  0  0  0  0  0  0  0  0  0
  1  2  1  0  0  0  0
  1  3  1  0  0  0  0
  1  4  1  0  0  0  0
  1  5  1  0  0  0  0
  5  6  1  0  0  0  0
  5  7  1  0  0  0  0
  5  8  1  0  0  0  0
  8  9  1  0  0  0  0
  8 10  1  0  0  0  0
  8 11  1  0  0  0  0
 11 12  1  0  0  0  0
 11 13  1  0  0  0  0
 11 14  1  0  0  0  0
 14 15  1  0  0  0  0
 14 16  1  0  0  0  0
 14 17  1  0  0  0  0
 17 18  1  0  0  0  0
 17 19  1  0  0  0  0
 17 20  1  0  0  0  0
 20 21  1  0  0  0  0
 20 22  1  0  0  0  0
 20 23  1  0  0  0  0
 23 24  1  0  0  0  0
 23 25  1  0  0  0  0
 23 26  1  0  0  0  0
M  END
> <VM2 Rank>
2

> <Conf_Id>
307

> <Probability>
5.09

> <Sum Probability>
12.80

> <Delta G>
0.248

> <G>
48.509

> <E>
16.054

> <-TS>
32.455

> <U+W>
-5.408

> <U>
47.845

> <W>
-53.253

> <W(PB)>
-55.604

> <W(SA)>
2.351

> <Valence>
2.258

> <Coulomb>
44.894

> <VdW>
0.694

> <VdW6>
-6.285

> <VdW12>
6.979

> <Bond>
0.149

> <Angle>
0.434

> <Pdih>
1.675

> <Idih>
0.000

> <Tether>
0.000

$$$$
VeraChem MOL file


 26 25  0  0  0  0  0  0  0  0999 V2000     
   19.4926   19.2222   18.9791 C   0  0  0  0  0  0  0  0  0  0  0  0
   18.4512   18.8790   19.0343 H   0  0  0  0  0  0  0  0  0  0  0  0
   19.4901   20.3197   18.9538 H   0  0  0  0  0  0  0  0  0  0  0  0
   19.9156   18.8643   18.0315 H   0  0  0  0  0  0  0  0  0  0  0  0
   20.3139   18.6967   20.1755 C   0  0  0  0  0  0  0  0  0  0  0  0
   21.3572   19.0275   20.0748 H   0  0  0  0  0  0  0  0  0  0  0  0
   20.3264   17.5979   20.1547 H   0  0  0  0  0  0  0  0  0  0  0  0
   19.7393   19.1864   21.5232 C   0  0  0  0  0  0  0  0  0  0  0  0
   19.7268   20.2850   21.5385 H   0  0  0  0  0  0  0  0  0  0  0  0
   18.6958   18.8554   21.6181 H   0  0  0  0  0  0  0  0  0  0  0  0
   20.5592   18.6621   22.7237 C   0  0  0  0  0  0  0  0  0  0  0  0
   21.6027   18.9928   22.6271 H   0  0  0  0  0  0  0  0  0  0  0  0
   20.5711   17.5634   22.7079 H   0  0  0  0  0  0  0  0  0  0  0  0
   19.9844   19.1525   24.0719 C   0  0  0  0  0  0  0  0  0  0  0  0
   19.9753   20.2513   24.0887 H   0  0  0  0  0  0  0  0  0  0  0  0
   18.9404   18.8235   24.1609 H   0  0  0  0  0  0  0  0  0  0  0  0
   20.8062   18.6260   25.2722 C   0  0  0  0  0  0  0  0  0  0  0  0
   21.8554   18.9283   25.1553 H   0  0  0  0  0  0  0  0  0  0  0  0
   20.7959   17.5279   25.2829 H   0  0  0  0  0  0  0  0  0  0  0  0
   20.2934   19.1583   26.6243 C   0  0  0  0  0  0  0  0  0  0  0  0
   20.9606   18.8224   27.4228 H   0  0  0  0  0  0  0  0  0  0  0  0
   20.2967   20.2516   26.6146 H   0  0  0  0  0  0  0  0  0  0  0  0
   18.8920   18.6949   26.9710 N   0  3  0  0  0  0  0  0  0  0  0  0
   18.5862   19.0556   27.8813 H   0  0  0  0  0  0  0  0  0  0  0  0
   18.8297   17.6727   27.0178 H   0  0  0  0  0  0  0  0  0  0  0  0
   18.2058   19.0091   26.2780 H   0  0  0  0  0  0  0  0  0  0  0  0
  1  2  1  0  0  0  0
  1  3  1  0  0  0  0
  1  4  1  0  0  0  0
  1  5  1  0  0  0  0
  5  6  1  0  0  0  0
  5  7  1  0  0  0  0
  5  8  1  0  0  0  0
  8  9  1  0  0  0  0
  8 10  1  0  0  0  0
  8 11  1  0  0  0  0
 11 12  1  0  0  0  0
 11 13  1  0  0  0  0
 11 14  1  0  0  0  0
 14 15  1  0  0  0  0
 14 16  1  0  0  0  0
 14 17  1  0  0  0  0
 17 18  1  0  0  0  0
 17 19  1  0  0  0  0
 17 20  1  0  0  0  0
 20 21  1  0  0  0  0
 20 22  1  0  0  0  0
 20 23  1  0  0  0  0
 23 24  1  0  0  0  0
 23 25  1  0  0  0  0
 23 26  1  0  0  0  0
M  END
> <VM2 Rank>
3

> <Conf_Id>
1283

> <Probability>
4.96

> <Sum Probability>
17.75

> <Delta G>
0.264

> <G>
48.525

> <E>
16.069

> <-TS>
32.456

> <U+W>
-5.393

> <U>
47.845

> <W>
-53.237

> <W(PB)>
-55.586

> <W(SA)>
2.349

> <Valence>
2.258

> <Coulomb>
44.893

> <VdW>
0.694

> <VdW6>
-6.285

> <VdW12>
6.978

> <Bond>
0.149

> <Angle>
0.434

> <Pdih>
1.675

> <Idih>
0.000

> <Tether>
0.000

$$$$
VeraChem MOL file


 26 25  0  0  0  0  0  0  0  0999 V2000     
   19.7687   18.8534   18.9897 C   0  0  0  0  0  0  0  0  0  0  0  0
   20.5472   19.5752   18.7104 H   0  0  0  0  0  0  0  0  0  0  0  0
   19.7779   18.0440   18.2481 H   0  0  0  0  0  0  0  0  0  0  0  0
   18.7958   19.3580   18.9257 H   0  0  0  0  0  0  0  0  0  0  0  0
   20.0122   18.2958   20.4081 C   0  0  0  0  0  0  0  0  0  0  0  0
   20.9761   17.7682   20.4318 H   0  0  0  0  0  0  0  0  0  0  0  0
   19.2381   17.5526   20.6454 H   0  0  0  0  0  0  0  0  0  0  0  0
   20.0042   19.4156   21.4722 C   0  0  0  0  0  0  0  0  0  0  0  0
   20.7776   20.1572   21.2288 H   0  0  0  0  0  0  0  0  0  0  0  0
   19.0397   19.9413   21.4434 H   0  0  0  0  0  0  0  0  0  0  0  0
   20.2481   18.8613   22.8940 C   0  0  0  0  0  0  0  0  0  0  0  0
   21.2140   18.3381   22.9221 H   0  0  0  0  0  0  0  0  0  0  0  0
   19.4755   18.1167   23.1278 H   0  0  0  0  0  0  0  0  0  0  0  0
   20.2382   19.9852   23.9578 C   0  0  0  0  0  0  0  0  0  0  0  0
   20.9815   20.7472   23.6851 H   0  0  0  0  0  0  0  0  0  0  0  0
   19.2617   20.4892   23.9558 H   0  0  0  0  0  0  0  0  0  0  0  0
   20.5521   19.4746   25.3837 C   0  0  0  0  0  0  0  0  0  0  0  0
   20.6146   20.3342   26.0643 H   0  0  0  0  0  0  0  0  0  0  0  0
   21.5389   18.9928   25.3943 H   0  0  0  0  0  0  0  0  0  0  0  0
   19.4901   18.4916   25.9112 C   0  0  0  0  0  0  0  0  0  0  0  0
   18.5077   18.9716   25.9018 H   0  0  0  0  0  0  0  0  0  0  0  0
   19.4489   17.6099   25.2666 H   0  0  0  0  0  0  0  0  0  0  0  0
   19.7675   18.0214   27.3244 N   0  3  0  0  0  0  0  0  0  0  0  0
   19.0495   17.3684   27.6566 H   0  0  0  0  0  0  0  0  0  0  0  0
   19.7914   18.8018   27.9890 H   0  0  0  0  0  0  0  0  0  0  0  0
   20.6680   17.5365   27.3960 H   0  0  0  0  0  0  0  0  0  0  0  0
  1  2  1  0  0  0  0
  1  3  1  0  0  0  0
  1  4  1  0  0  0  0
  1  5  1  0  0  0  0
  5  6  1  0  0  0  0
  5  7  1  0  0  0  0
  5  8  1  0  0  0  0
  8  9  1  0  0  0  0
  8 10  1  0  0  0  0
  8 11  1  0  0  0  0
 11 12  1  0  0  0  0
 11 13  1  0  0  0  0
 11 14  1  0  0  0  0
 14 15  1  0  0  0  0
 14 16  1  0  0  0  0
 14 17  1  0  0  0  0
 17 18  1  0  0  0  0
 17 19  1  0  0  0  0
 17 20  1  0  0  0  0
 20 21  1  0  0  0  0
 20 22  1  0  0  0  0
 20 23  1  0  0  0  0
 23 24  1  0  0  0  0
 23 25  1  0  0  0  0
 23 26  1  0  0  0  0
M  END
> <VM2 Rank>
4

> <Conf_Id>
1284

> <Probability>
3.52

> <Sum Probability>
21.27

> <Delta G>
0.468

> <G>
48.730

> <E>
16.279

> <-TS>
32.451

> <U+W>
-5.183

> <U>
48.002

> <W>
-53.185

> <W(PB)>
-55.535

> <W(SA)>
2.350

> <Valence>
2.459

> <Coulomb>
44.900

> <VdW>
0.643

> <VdW6>
-6.362

> <VdW12>
7.005

> <Bond>
0.151

> <Angle>
0.519

> <Pdih>
1.789

> <Idih>
0.000

> <Tether>
0.000

$$$$
VeraChem MOL file


 26 25  0  0  0  0  0  0  0  0999 V2000     
   20.3710   19.2510   19.0099 C   0  0  0  0  0  0  0  0  0  0  0  0
   21.1451   18.9461   18.2938 H   0  0  0  0  0  0  0  0  0  0  0  0
   19.4151   18.8294   18.6724 H   0  0  0  0  0  0  0  0  0  0  0  0
   20.2929   20.3455   18.9761 H   0  0  0  0  0  0  0  0  0  0  0  0
   20.7212   18.7634   20.4317 C   0  0  0  0  0  0  0  0  0  0  0  0
   21.6969   19.1737   20.7277 H   0  0  0  0  0  0  0  0  0  0  0  0
   20.8258   17.6693   20.4265 H   0  0  0  0  0  0  0  0  0  0  0  0
   19.6465   19.1797   21.4603 C   0  0  0  0  0  0  0  0  0  0  0  0
   19.5440   20.2738   21.4604 H   0  0  0  0  0  0  0  0  0  0  0  0
   18.6728   18.7695   21.1584 H   0  0  0  0  0  0  0  0  0  0  0  0
   19.9935   18.6931   22.8854 C   0  0  0  0  0  0  0  0  0  0  0  0
   20.9701   19.1017   23.1778 H   0  0  0  0  0  0  0  0  0  0  0  0
   20.0931   17.5988   22.8844 H   0  0  0  0  0  0  0  0  0  0  0  0
   18.9157   19.1128   23.9136 C   0  0  0  0  0  0  0  0  0  0  0  0
   18.8364   20.2085   23.9416 H   0  0  0  0  0  0  0  0  0  0  0  0
   17.9365   18.7389   23.5834 H   0  0  0  0  0  0  0  0  0  0  0  0
   19.1951   18.5795   25.3384 C   0  0  0  0  0  0  0  0  0  0  0  0
   19.2499   17.4829   25.3179 H   0  0  0  0  0  0  0  0  0  0  0  0
   18.3493   18.8399   25.9886 H   0  0  0  0  0  0  0  0  0  0  0  0
   20.4904   19.1515   25.9446 C   0  0  0  0  0  0  0  0  0  0  0  0
   21.3465   18.8615   25.3300 H   0  0  0  0  0  0  0  0  0  0  0  0
   20.4356   20.2433   25.9661 H   0  0  0  0  0  0  0  0  0  0  0  0
   20.7476   18.6681   27.3572 N   0  3  0  0  0  0  0  0  0  0  0  0
   19.9905   18.9334   27.9956 H   0  0  0  0  0  0  0  0  0  0  0  0
   21.6138   19.0602   27.7423 H   0  0  0  0  0  0  0  0  0  0  0  0
   20.8363   17.6476   27.4017 H   0  0  0  0  0  0  0  0  0  0  0  0
  1  2  1  0  0  0  0
  1  3  1  0  0  0  0
  1  4  1  0  0  0  0
  1  5  1  0  0  0  0
  5  6  1  0  0  0  0
  5  7  1  0  0  0  0
  5  8  1  0  0  0  0
  8  9  1  0  0  0  0
  8 10  1  0  0  0  0
  8 11  1  0  0  0  0
 11 12  1  0  0  0  0
 11 13  1  0  0  0  0
 11 14  1  0  0  0  0
 14 15  1  0  0  0  0
 14 16  1  0  0  0  0
 14 17  1  0  0  0  0
 17 18  1  0  0  0  0
 17 19  1  0  0  0  0
 17 20  1  0  0  0  0
 20 21  1  0  0  0  0
 20 22  1  0  0  0  0
 20 23  1  0  0  0  0
 23 24  1  0  0  0  0
 23 25  1  0  0  0  0
 23 26  1  0  0  0  0
M  END
> <VM2 Rank>
5

> <Conf_Id>
1194

> <Probability>
3.49

> <Sum Probability>
24.75

> <Delta G>
0.473

> <G>
48.735

> <E>
16.284

> <-TS>
32.451

> <U+W>
-5.178

> <U>
48.002

> <W>
-53.180

> <W(PB)>
-55.521

> <W(SA)>
2.341

> <Valence>
2.459

> <Coulomb>
44.900

> <VdW>
0.642

> <VdW6>
-6.362

> <VdW12>
7.005

> <Bond>
0.151

> <Angle>
0.519

> <Pdih>
1.789

> <Idih>
0.000

> <Tether>
0.000

$$$$
VeraChem MOL file


 26 25  0  0  0  0  0  0  0  0999 V2000     
   19.4449   18.1621   19.5243 C   0  0  0  0  0  0  0  0  0  0  0  0
   19.4107   17.2842   20.1812 H   0  0  0  0  0  0  0  0  0  0  0  0
   18.4489   18.6236   19.5138 H   0  0  0  0  0  0  0  0  0  0  0  0
   19.6603   17.8057   18.5087 H   0  0  0  0  0  0  0  0  0  0  0  0
   20.5209   19.1727   19.9822 C   0  0  0  0  0  0  0  0  0  0  0  0
   20.6012   19.9696   19.2297 H   0  0  0  0  0  0  0  0  0  0  0  0
   21.5023   18.6791   20.0130 H   0  0  0  0  0  0  0  0  0  0  0  0
   20.2154   19.8164   21.3563 C   0  0  0  0  0  0  0  0  0  0  0  0
   20.9651   20.5960   21.5503 H   0  0  0  0  0  0  0  0  0  0  0  0
   19.2431   20.3264   21.3142 H   0  0  0  0  0  0  0  0  0  0  0  0
   20.2241   18.8045   22.5271 C   0  0  0  0  0  0  0  0  0  0  0  0
   21.1784   18.2598   22.5339 H   0  0  0  0  0  0  0  0  0  0  0  0
   19.4316   18.0585   22.3821 H   0  0  0  0  0  0  0  0  0  0  0  0
   20.0185   19.5030   23.8904 C   0  0  0  0  0  0  0  0  0  0  0  0
   20.8118   20.2475   24.0459 H   0  0  0  0  0  0  0  0  0  0  0  0
   19.0657   20.0507   23.8823 H   0  0  0  0  0  0  0  0  0  0  0  0
   20.0229   18.4950   25.0607 C   0  0  0  0  0  0  0  0  0  0  0  0
   20.9756   17.9488   25.0748 H   0  0  0  0  0  0  0  0  0  0  0  0
   19.2276   17.7523   24.9124 H   0  0  0  0  0  0  0  0  0  0  0  0
   19.8179   19.2010   26.4126 C   0  0  0  0  0  0  0  0  0  0  0  0
   20.6168   19.9301   26.5720 H   0  0  0  0  0  0  0  0  0  0  0  0
   18.8625   19.7327   26.4090 H   0  0  0  0  0  0  0  0  0  0  0  0
   19.8164   18.2444   27.5875 N   0  3  0  0  0  0  0  0  0  0  0  0
   19.6785   18.7350   28.4779 H   0  0  0  0  0  0  0  0  0  0  0  0
   20.7006   17.7311   27.6636 H   0  0  0  0  0  0  0  0  0  0  0  0
   19.0682   17.5474   27.5120 H   0  0  0  0  0  0  0  0  0  0  0  0
  1  2  1  0  0  0  0
  1  3  1  0  0  0  0
  1  4  1  0  0  0  0
  1  5  1  0  0  0  0
  5  6  1  0  0  0  0
  5  7  1  0  0  0  0
  5  8  1  0  0  0  0
  8  9  1  0  0  0  0
  8 10  1  0  0  0  0
  8 11  1  0  0  0  0
 11 12  1  0  0  0  0
 11 13  1  0  0  0  0
 11 14  1  0  0  0  0
 14 15  1  0  0  0  0
 14 16  1  0  0  0  0
 14 17  1  0  0  0  0
 17 18  1  0  0  0  0
 17 19  1  0  0  0  0
 17 20  1  0  0  0  0
 20 21  1  0  0  0  0
 20 22  1  0  0  0  0
 20 23  1  0  0  0  0
 23 24  1  0  0  0  0
 23 25  1  0  0  0  0
 23 26  1  0  0  0  0
M  END
> <VM2 Rank>
6

> <Conf_Id>
285

> <Probability>
2.86

> <Sum Probability>
27.61

> <Delta G>
0.591

> <G>
48.853

> <E>
16.390

> <-TS>
32.463

> <U+W>
-5.072

> <U>
47.845

> <W>
-52.917

> <W(PB)>
-55.279

> <W(SA)>
2.362

> <Valence>
2.661

> <Coulomb>
44.462

> <VdW>
0.723

> <VdW6>
-6.379

> <VdW12>
7.102

> <Bond>
0.164

> <Angle>
0.634

> <Pdih>
1.863

> <Idih>
0.000

> <Tether>
0.000

$$$$
VeraChem MOL file


 26 25  0  0  0  0  0  0  0  0999 V2000     
   21.1080   19.2588   19.5798 C   0  0  0  0  0  0  0  0  0  0  0  0
   21.3980   18.9514   18.5667 H   0  0  0  0  0  0  0  0  0  0  0  0
   21.0759   20.3558   19.6014 H   0  0  0  0  0  0  0  0  0  0  0  0
   21.8973   18.9238   20.2642 H   0  0  0  0  0  0  0  0  0  0  0  0
   19.7359   18.6550   19.9560 C   0  0  0  0  0  0  0  0  0  0  0  0
   19.8023   17.5580   19.9563 H   0  0  0  0  0  0  0  0  0  0  0  0
   19.0075   18.9186   19.1765 H   0  0  0  0  0  0  0  0  0  0  0  0
   19.2008   19.1474   21.3224 C   0  0  0  0  0  0  0  0  0  0  0  0
   19.1163   20.2428   21.3100 H   0  0  0  0  0  0  0  0  0  0  0  0
   18.1813   18.7603   21.4573 H   0  0  0  0  0  0  0  0  0  0  0  0
   20.0723   18.7044   22.5220 C   0  0  0  0  0  0  0  0  0  0  0  0
   21.0754   19.1426   22.4371 H   0  0  0  0  0  0  0  0  0  0  0  0
   20.1974   17.6130   22.5011 H   0  0  0  0  0  0  0  0  0  0  0  0
   19.4481   19.1269   23.8713 C   0  0  0  0  0  0  0  0  0  0  0  0
   19.3196   20.2182   23.8908 H   0  0  0  0  0  0  0  0  0  0  0  0
   18.4455   18.6871   23.9668 H   0  0  0  0  0  0  0  0  0  0  0  0
   20.3177   18.6894   25.0705 C   0  0  0  0  0  0  0  0  0  0  0  0
   21.3191   19.1316   24.9823 H   0  0  0  0  0  0  0  0  0  0  0  0
   20.4445   17.5986   25.0570 H   0  0  0  0  0  0  0  0  0  0  0  0
   19.6869   19.1145   26.4082 C   0  0  0  0  0  0  0  0  0  0  0  0
   19.5738   20.2018   26.4329 H   0  0  0  0  0  0  0  0  0  0  0  0
   18.6959   18.6633   26.5078 H   0  0  0  0  0  0  0  0  0  0  0  0
   20.5113   18.7026   27.6107 N   0  3  0  0  0  0  0  0  0  0  0  0
   20.0734   18.9953   28.4911 H   0  0  0  0  0  0  0  0  0  0  0  0
   21.4488   19.1173   27.5916 H   0  0  0  0  0  0  0  0  0  0  0  0
   20.6320   17.6857   27.6613 H   0  0  0  0  0  0  0  0  0  0  0  0
  1  2  1  0  0  0  0
  1  3  1  0  0  0  0
  1  4  1  0  0  0  0
  1  5  1  0  0  0  0
  5  6  1  0  0  0  0
  5  7  1  0  0  0  0
  5  8  1  0  0  0  0
  8  9  1  0  0  0  0
  8 10  1  0  0  0  0
  8 11  1  0  0  0  0
 11 12  1  0  0  0  0
 11 13  1  0  0  0  0
 11 14  1  0  0  0  0
 14 15  1  0  0  0  0
 14 16  1  0  0  0  0
 14 17  1  0  0  0  0
 17 18  1  0  0  0  0
 17 19  1  0  0  0  0
 17 20  1  0  0  0  0
 20 21  1  0  0  0  0
 20 22  1  0  0  0  0
 20 23  1  0  0  0  0
 23 24  1  0  0  0  0
 23 25  1  0  0  0  0
 23 26  1  0  0  0  0
M  END
> <VM2 Rank>
7

> <Conf_Id>
1255

> <Probability>
2.69

> <Sum Probability>
30.30

> <Delta G>
0.628

> <G>
48.890

> <E>
16.427

> <-TS>
32.463

> <U+W>
-5.035

> <U>
47.845

> <W>
-52.880

> <W(PB)>
-55.232

> <W(SA)>
2.352

> <Valence>
2.661

> <Coulomb>
44.462

> <VdW>
0.723

> <VdW6>
-6.379

> <VdW12>
7.102

> <Bond>
0.164

> <Angle>
0.634

> <Pdih>
1.863

> <Idih>
0.000

> <Tether>
0.000

$$$$
VeraChem MOL file


 26 25  0  0  0  0  0  0  0  0999 V2000     
   20.1860   19.7829   19.1893 C   0  0  0  0  0  0  0  0  0  0  0  0
   20.2156   18.9015   18.5353 H   0  0  0  0  0  0  0  0  0  0  0  0
   19.1862   20.2302   19.1153 H   0  0  0  0  0  0  0  0  0  0  0  0
   20.9108   20.5120   18.8045 H   0  0  0  0  0  0  0  0  0  0  0  0
   20.5169   19.4034   20.6483 C   0  0  0  0  0  0  0  0  0  0  0  0
   20.5179   20.3143   21.2614 H   0  0  0  0  0  0  0  0  0  0  0  0
   21.5326   18.9864   20.6946 H   0  0  0  0  0  0  0  0  0  0  0  0
   19.5052   18.3790   21.2142 C   0  0  0  0  0  0  0  0  0  0  0  0
   18.4972   18.8163   21.2168 H   0  0  0  0  0  0  0  0  0  0  0  0
   19.4625   17.5111   20.5417 H   0  0  0  0  0  0  0  0  0  0  0  0
   19.8581   17.8795   22.6369 C   0  0  0  0  0  0  0  0  0  0  0  0
   20.8599   17.4282   22.6300 H   0  0  0  0  0  0  0  0  0  0  0  0
   19.1595   17.0750   22.9055 H   0  0  0  0  0  0  0  0  0  0  0  0
   19.7906   18.9867   23.7163 C   0  0  0  0  0  0  0  0  0  0  0  0
   20.5374   19.7634   23.5051 H   0  0  0  0  0  0  0  0  0  0  0  0
   18.8056   19.4728   23.6834 H   0  0  0  0  0  0  0  0  0  0  0  0
   20.0384   18.4224   25.1326 C   0  0  0  0  0  0  0  0  0  0  0  0
   21.0227   17.9366   25.1700 H   0  0  0  0  0  0  0  0  0  0  0  0
   19.2897   17.6521   25.3608 H   0  0  0  0  0  0  0  0  0  0  0  0
   19.9736   19.5298   26.1992 C   0  0  0  0  0  0  0  0  0  0  0  0
   20.7289   20.2911   25.9859 H   0  0  0  0  0  0  0  0  0  0  0  0
   18.9895   20.0056   26.1766 H   0  0  0  0  0  0  0  0  0  0  0  0
   20.2121   19.0154   27.6042 N   0  3  0  0  0  0  0  0  0  0  0  0
   21.1350   18.5790   27.6999 H   0  0  0  0  0  0  0  0  0  0  0  0
   19.5165   18.3135   27.8774 H   0  0  0  0  0  0  0  0  0  0  0  0
   20.1647   19.7687   28.2989 H   0  0  0  0  0  0  0  0  0  0  0  0
  1  2  1  0  0  0  0
  1  3  1  0  0  0  0
  1  4  1  0  0  0  0
  1  5  1  0  0  0  0
  5  6  1  0  0  0  0
  5  7  1  0  0  0  0
  5  8  1  0  0  0  0
  8  9  1  0  0  0  0
  8 10  1  0  0  0  0
  8 11  1  0  0  0  0
 11 12  1  0  0  0  0
 11 13  1  0  0  0  0
 11 14  1  0  0  0  0
 14 15  1  0  0  0  0
 14 16  1  0  0  0  0
 14 17  1  0  0  0  0
 17 18  1  0  0  0  0
 17 19  1  0  0  0  0
 17 20  1  0  0  0  0
 20 21  1  0  0  0  0
 20 22  1  0  0  0  0
 20 23  1  0  0  0  0
 23 24  1  0  0  0  0
 23 25  1  0  0  0  0
 23 26  1  0  0  0  0
M  END
> <VM2 Rank>
8

> <Conf_Id>
487

> <Probability>
2.54

> <Sum Probability>
32.84

> <Delta G>
0.663

> <G>
48.924

> <E>
16.474

> <-TS>
32.451

> <U+W>
-4.988

> <U>
48.035

> <W>
-53.023

> <W(PB)>
-55.378

> <W(SA)>
2.355

> <Valence>
2.701

> <Coulomb>
44.622

> <VdW>
0.712

> <VdW6>
-6.418

> <VdW12>
7.130

> <Bond>
0.168

> <Angle>
0.659

> <Pdih>
1.875

> <Idih>
0.000

> <Tether>
0.000

$$$$
VeraChem MOL file


 26 25  0  0  0  0  0  0  0  0999 V2000     
   20.8452   19.8696   19.4336 C   0  0  0  0  0  0  0  0  0  0  0  0
   21.8102   20.1734   19.8598 H   0  0  0  0  0  0  0  0  0  0  0  0
   21.0195   19.5525   18.3972 H   0  0  0  0  0  0  0  0  0  0  0  0
   20.1891   20.7496   19.4109 H   0  0  0  0  0  0  0  0  0  0  0  0
   20.2114   18.7262   20.2540 C   0  0  0  0  0  0  0  0  0  0  0  0
   20.8743   17.8498   20.2308 H   0  0  0  0  0  0  0  0  0  0  0  0
   19.2661   18.4212   19.7836 H   0  0  0  0  0  0  0  0  0  0  0  0
   19.9545   19.1467   21.7181 C   0  0  0  0  0  0  0  0  0  0  0  0
   20.9042   19.4572   22.1728 H   0  0  0  0  0  0  0  0  0  0  0  0
   19.2900   20.0216   21.7361 H   0  0  0  0  0  0  0  0  0  0  0  0
   19.3225   17.9994   22.5426 C   0  0  0  0  0  0  0  0  0  0  0  0
   20.0091   17.1421   22.5719 H   0  0  0  0  0  0  0  0  0  0  0  0
   18.4149   17.6499   22.0313 H   0  0  0  0  0  0  0  0  0  0  0  0
   18.9435   18.4101   23.9868 C   0  0  0  0  0  0  0  0  0  0  0  0
   18.2433   19.2565   23.9574 H   0  0  0  0  0  0  0  0  0  0  0  0
   18.4004   17.5770   24.4545 H   0  0  0  0  0  0  0  0  0  0  0  0
   20.1622   18.7718   24.8680 C   0  0  0  0  0  0  0  0  0  0  0  0
   20.6724   19.6552   24.4639 H   0  0  0  0  0  0  0  0  0  0  0  0
   20.8854   17.9456   24.8563 H   0  0  0  0  0  0  0  0  0  0  0  0
   19.7381   19.0592   26.3191 C   0  0  0  0  0  0  0  0  0  0  0  0
   19.0301   19.8921   26.3375 H   0  0  0  0  0  0  0  0  0  0  0  0
   19.2446   18.1788   26.7396 H   0  0  0  0  0  0  0  0  0  0  0  0
   20.9036   19.4161   27.2189 N   0  3  0  0  0  0  0  0  0  0  0  0
   20.5990   19.6030   28.1805 H   0  0  0  0  0  0  0  0  0  0  0  0
   21.3952   20.2548   26.8933 H   0  0  0  0  0  0  0  0  0  0  0  0
   21.5949   18.6603   27.2667 H   0  0  0  0  0  0  0  0  0  0  0  0
  1  2  1  0  0  0  0
  1  3  1  0  0  0  0
  1  4  1  0  0  0  0
  1  5  1  0  0  0  0
  5  6  1  0  0  0  0
  5  7  1  0  0  0  0
  5  8  1  0  0  0  0
  8  9  1  0  0  0  0
  8 10  1  0  0  0  0
  8 11  1  0  0  0  0
 11 12  1  0  0  0  0
 11 13  1  0  0  0  0
 11 14  1  0  0  0  0
 14 15  1  0  0  0  0
 14 16  1  0  0  0  0
 14 17  1  0  0  0  0
 17 18  1  0  0  0  0
 17 19  1  0  0  0  0
 17 20  1  0  0  0  0
 20 21  1  0  0  0  0
 20 22  1  0  0  0  0
 20 23  1  0  0  0  0
 23 24  1  0  0  0  0
 23 25  1  0  0  0  0
 23 26  1  0  0  0  0
M  END
> <VM2 Rank>
9

> <Conf_Id>
611

> <Probability>
2.53

> <Sum Probability>
35.37

> <Delta G>
0.664

> <G>
48.926

> <E>
16.473

> <-TS>
32.453

> <U+W>
-4.989

> <U>
48.214

> <W>
-53.203

> <W(PB)>
-55.543

> <W(SA)>
2.340

> <Valence>
2.697

> <Coulomb>
44.818

> <VdW>
0.698

> <VdW6>
-6.437

> <VdW12>
7.136

> <Bond>
0.168

> <Angle>
0.657

> <Pdih>
1.873

> <Idih>
0.000

> <Tether>
0.000

$$$$
VeraChem MOL file


 26 25  0  0  0  0  0  0  0  0999 V2000     
   19.3439   19.2272   19.1611 C   0  0  0  0  0  0  0  0  0  0  0  0
   20.1724   18.8733   18.5339 H   0  0  0  0  0  0  0  0  0  0  0  0
   18.4077   18.8601   18.7208 H   0  0  0  0  0  0  0  0  0  0  0  0
   19.3283   20.3241   19.1201 H   0  0  0  0  0  0  0  0  0  0  0  0
   19.4949   18.7288   20.6141 C   0  0  0  0  0  0  0  0  0  0  0  0
   19.4776   17.6300   20.6257 H   0  0  0  0  0  0  0  0  0  0  0  0
   18.6290   19.0676   21.1982 H   0  0  0  0  0  0  0  0  0  0  0  0
   20.8064   19.2376   21.2577 C   0  0  0  0  0  0  0  0  0  0  0  0
   21.6518   18.9558   20.6149 H   0  0  0  0  0  0  0  0  0  0  0  0
   20.7997   20.3358   21.2938 H   0  0  0  0  0  0  0  0  0  0  0  0
   21.0606   18.6731   22.6771 C   0  0  0  0  0  0  0  0  0  0  0  0
   22.0612   18.9898   23.0025 H   0  0  0  0  0  0  0  0  0  0  0  0
   21.0825   17.5752   22.6375 H   0  0  0  0  0  0  0  0  0  0  0  0
   20.0198   19.1380   23.7240 C   0  0  0  0  0  0  0  0  0  0  0  0
   19.9613   20.2354   23.7221 H   0  0  0  0  0  0  0  0  0  0  0  0
   19.0231   18.7645   23.4544 H   0  0  0  0  0  0  0  0  0  0  0  0
   20.3749   18.6444   25.1439 C   0  0  0  0  0  0  0  0  0  0  0  0
   21.3658   19.0216   25.4302 H   0  0  0  0  0  0  0  0  0  0  0  0
   20.4331   17.5478   25.1502 H   0  0  0  0  0  0  0  0  0  0  0  0
   19.3335   19.1076   26.1779 C   0  0  0  0  0  0  0  0  0  0  0  0
   19.2840   20.1998   26.1867 H   0  0  0  0  0  0  0  0  0  0  0  0
   18.3477   18.7206   25.9063 H   0  0  0  0  0  0  0  0  0  0  0  0
   19.6470   18.6423   27.5852 N   0  3  0  0  0  0  0  0  0  0  0  0
   18.9414   18.9615   28.2581 H   0  0  0  0  0  0  0  0  0  0  0  0
   20.5522   18.9960   27.9120 H   0  0  0  0  0  0  0  0  0  0  0  0
   19.6809   17.6197   27.6511 H   0  0  0  0  0  0  0  0  0  0  0  0
  1  2  1  0  0  0  0
  1  3  1  0  0  0  0
  1  4  1  0  0  0  0
  1  5  1  0  0  0  0
  5  6  1  0  0  0  0
  5  7  1  0  0  0  0
  5  8  1  0  0  0  0
  8  9  1  0  0  0  0
  8 10  1  0  0  0  0
  8 11  1  0  0  0  0
 11 12  1  0  0  0  0
 11 13  1  0  0  0  0
 11 14  1  0  0  0  0
 14 15  1  0  0  0  0
 14 16  1  0  0  0  0
 14 17  1  0  0  0  0
 17 18  1  0  0  0  0
 17 19  1  0  0  0  0
 17 20  1  0  0  0  0
 20 21  1  0  0  0  0
 20 22  1  0  0  0  0
 20 23  1  0  0  0  0
 23 24  1  0  0  0  0
 23 25  1  0  0  0  0
 23 26  1  0  0  0  0
M  END
> <VM2 Rank>
10

> <Conf_Id>
613

> <Probability>
2.51

> <Sum Probability>
37.88

> <Delta G>
0.669

> <G>
48.931

> <E>
16.480

> <-TS>
32.451

> <U+W>
-4.982

> <U>
48.035

> <W>
-53.017

> <W(PB)>
-55.374

> <W(SA)>
2.357

> <Valence>
2.701

> <Coulomb>
44.622

> <VdW>
0.712

> <VdW6>
-6.418

> <VdW12>
7.129

> <Bond>
0.168

> <Angle>
0.659

> <Pdih>
1.875

> <Idih>
0.000

> <Tether>
0.000

$$$$
VeraChem MOL file


 26 25  0  0  0  0  0  0  0  0999 V2000     
   18.9940   18.6487   19.3718 C   0  0  0  0  0  0  0  0  0  0  0  0
   18.3164   17.8688   19.7431 H   0  0  0  0  0  0  0  0  0  0  0  0
   18.4442   19.5988   19.3528 H   0  0  0  0  0  0  0  0  0  0  0  0
   19.2650   18.3956   18.3386 H   0  0  0  0  0  0  0  0  0  0  0  0
   20.2550   18.7551   20.2555 C   0  0  0  0  0  0  0  0  0  0  0  0
   20.9280   19.5177   19.8392 H   0  0  0  0  0  0  0  0  0  0  0  0
   20.8009   17.8016   20.2282 H   0  0  0  0  0  0  0  0  0  0  0  0
   19.9015   19.1117   21.7164 C   0  0  0  0  0  0  0  0  0  0  0  0
   19.3579   20.0662   21.7386 H   0  0  0  0  0  0  0  0  0  0  0  0
   19.2224   18.3477   22.1166 H   0  0  0  0  0  0  0  0  0  0  0  0
   21.1651   19.2146   22.6041 C   0  0  0  0  0  0  0  0  0  0  0  0
   21.8663   19.9263   22.1466 H   0  0  0  0  0  0  0  0  0  0  0  0
   21.6817   18.2451   22.6277 H   0  0  0  0  0  0  0  0  0  0  0  0
   20.8696   19.6802   24.0512 C   0  0  0  0  0  0  0  0  0  0  0  0
   21.8263   19.8362   24.5690 H   0  0  0  0  0  0  0  0  0  0  0  0
   20.3687   20.6580   24.0285 H   0  0  0  0  0  0  0  0  0  0  0  0
   20.0176   18.6765   24.8631 C   0  0  0  0  0  0  0  0  0  0  0  0
   20.4930   17.6868   24.8431 H   0  0  0  0  0  0  0  0  0  0  0  0
   19.0247   18.5687   24.4087 H   0  0  0  0  0  0  0  0  0  0  0  0
   19.8528   19.1348   26.3229 C   0  0  0  0  0  0  0  0  0  0  0  0
   20.8356   19.2280   26.7927 H   0  0  0  0  0  0  0  0  0  0  0  0
   19.3650   20.1130   26.3487 H   0  0  0  0  0  0  0  0  0  0  0  0
   19.0253   18.1773   27.1560 N   0  3  0  0  0  0  0  0  0  0  0  0
   18.0770   18.0667   26.7824 H   0  0  0  0  0  0  0  0  0  0  0  0
   18.9285   18.5012   28.1246 H   0  0  0  0  0  0  0  0  0  0  0  0
   19.4456   17.2430   27.1946 H   0  0  0  0  0  0  0  0  0  0  0  0
  1  2  1  0  0  0  0
  1  3  1  0  0  0  0
  1  4  1  0  0  0  0
  1  5  1  0  0  0  0
  5  6  1  0  0  0  0
  5  7  1  0  0  0  0
  5  8  1  0  0  0  0
  8  9  1  0  0  0  0
  8 10  1  0  0  0  0
  8 11  1  0  0  0  0
 11 12  1  0  0  0  0
 11 13  1  0  0  0  0
 11 14  1  0  0  0  0
 14 15  1  0  0  0  0
 14 16  1  0  0  0  0
 14 17  1  0  0  0  0
 17 18  1  0  0  0  0
 17 19  1  0  0  0  0
 17 20  1  0  0  0  0
 20 21  1  0  0  0  0
 20 22  1  0  0  0  0
 20 23  1  0  0  0  0
 23 24  1  0  0  0  0
 23 25  1  0  0  0  0
 23 26  1  0  0  0  0
M  END
> <VM2 Rank>
11

> <Conf_Id>
493

> <Probability>
2.44

> <Sum Probability>
40.32

> <Delta G>
0.685

> <G>
48.947

> <E>
16.494

> <-TS>
32.453

> <U+W>
-4.968

> <U>
48.214

> <W>
-53.182

> <W(PB)>
-55.531

> <W(SA)>
2.348

> <Valence>
2.697

> <Coulomb>
44.819

> <VdW>
0.699

> <VdW6>
-6.437

> <VdW12>
7.136

> <Bond>
0.168

> <Angle>
0.657

> <Pdih>
1.872

> <Idih>
0.000

> <Tether>
0.000

$$$$
VeraChem MOL file


 26 25  0  0  0  0  0  0  0  0999 V2000     
   20.4627   19.6712   19.5223 C   0  0  0  0  0  0  0  0  0  0  0  0
   21.3152   20.0463   20.1020 H   0  0  0  0  0  0  0  0  0  0  0  0
   20.8047   19.5267   18.4892 H   0  0  0  0  0  0  0  0  0  0  0  0
   19.6847   20.4456   19.5131 H   0  0  0  0  0  0  0  0  0  0  0  0
   19.9205   18.3453   20.1027 C   0  0  0  0  0  0  0  0  0  0  0  0
   20.7248   17.5969   20.1289 H   0  0  0  0  0  0  0  0  0  0  0  0
   19.1537   17.9487   19.4226 H   0  0  0  0  0  0  0  0  0  0  0  0
   19.3018   18.4984   21.5132 C   0  0  0  0  0  0  0  0  0  0  0  0
   18.4848   19.2323   21.4776 H   0  0  0  0  0  0  0  0  0  0  0  0
   18.8449   17.5409   21.7990 H   0  0  0  0  0  0  0  0  0  0  0  0
   20.3281   18.9117   22.5952 C   0  0  0  0  0  0  0  0  0  0  0  0
   20.7423   19.9006   22.3587 H   0  0  0  0  0  0  0  0  0  0  0  0
   21.1687   18.2042   22.5927 H   0  0  0  0  0  0  0  0  0  0  0  0
   19.6922   18.9525   24.0033 C   0  0  0  0  0  0  0  0  0  0  0  0
   18.8511   19.6598   24.0050 H   0  0  0  0  0  0  0  0  0  0  0  0
   19.2782   17.9639   24.2422 H   0  0  0  0  0  0  0  0  0  0  0  0
   20.7173   19.3685   25.0847 C   0  0  0  0  0  0  0  0  0  0  0  0
   21.1526   20.3409   24.8184 H   0  0  0  0  0  0  0  0  0  0  0  0
   21.5478   18.6505   25.1123 H   0  0  0  0  0  0  0  0  0  0  0  0
   20.0897   19.4833   26.4873 C   0  0  0  0  0  0  0  0  0  0  0  0
   20.8382   19.8601   27.1897 H   0  0  0  0  0  0  0  0  0  0  0  0
   19.2585   20.1931   26.4617 H   0  0  0  0  0  0  0  0  0  0  0  0
   19.5687   18.1680   27.0325 N   0  3  0  0  0  0  0  0  0  0  0  0
   18.8329   17.7751   26.4374 H   0  0  0  0  0  0  0  0  0  0  0  0
   19.1696   18.2764   27.9713 H   0  0  0  0  0  0  0  0  0  0  0  0
   20.3108   17.4641   27.1021 H   0  0  0  0  0  0  0  0  0  0  0  0
  1  2  1  0  0  0  0
  1  3  1  0  0  0  0
  1  4  1  0  0  0  0
  1  5  1  0  0  0  0
  5  6  1  0  0  0  0
  5  7  1  0  0  0  0
  5  8  1  0  0  0  0
  8  9  1  0  0  0  0
  8 10  1  0  0  0  0
  8 11  1  0  0  0  0
 11 12  1  0  0  0  0
 11 13  1  0  0  0  0
 11 14  1  0  0  0  0
 14 15  1  0  0  0  0
 14 16  1  0  0  0  0
 14 17  1  0  0  0  0
 17 18  1  0  0  0  0
 17 19  1  0  0  0  0
 17 20  1  0  0  0  0
 20 21  1  0  0  0  0
 20 22  1  0  0  0  0
 20 23  1  0  0  0  0
 23 24  1  0  0  0  0
 23 25  1  0  0  0  0
 23 26  1  0  0  0  0
M  END
> <VM2 Rank>
12

> <Conf_Id>
1229

> <Probability>
1.94

> <Sum Probability>
42.25

> <Delta G>
0.824

> <G>
49.085

> <E>
16.519

> <-TS>
32.566

> <U+W>
-4.943

> <U>
48.461

> <W>
-53.404

> <W(PB)>
-55.711

> <W(SA)>
2.307

> <Valence>
2.762

> <Coulomb>
44.868

> <VdW>
0.832

> <VdW6>
-6.903

> <VdW12>
7.735

> <Bond>
0.184

> <Angle>
0.674

> <Pdih>
1.903

> <Idih>
0.000

> <Tether>
0.000

$$$$
VeraChem MOL file


 26 25  0  0  0  0  0  0  0  0999 V2000     
   20.5613   19.3878   19.2124 C   0  0  0  0  0  0  0  0  0  0  0  0
   19.5327   19.4829   18.8408 H   0  0  0  0  0  0  0  0  0  0  0  0
   20.9775   20.3971   19.3287 H   0  0  0  0  0  0  0  0  0  0  0  0
   21.1497   18.8669   18.4459 H   0  0  0  0  0  0  0  0  0  0  0  0
   20.5995   18.6147   20.5477 C   0  0  0  0  0  0  0  0  0  0  0  0
   21.6427   18.5063   20.8764 H   0  0  0  0  0  0  0  0  0  0  0  0
   20.2090   17.5992   20.3923 H   0  0  0  0  0  0  0  0  0  0  0  0
   19.7781   19.3271   21.6450 C   0  0  0  0  0  0  0  0  0  0  0  0
   20.1708   20.3423   21.7953 H   0  0  0  0  0  0  0  0  0  0  0  0
   18.7371   19.4354   21.3104 H   0  0  0  0  0  0  0  0  0  0  0  0
   19.8137   18.5556   22.9835 C   0  0  0  0  0  0  0  0  0  0  0  0
   20.8570   18.4449   23.3076 H   0  0  0  0  0  0  0  0  0  0  0  0
   19.4177   17.5419   22.8324 H   0  0  0  0  0  0  0  0  0  0  0  0
   18.9916   19.2725   24.0813 C   0  0  0  0  0  0  0  0  0  0  0  0
   19.3987   20.2778   24.2536 H   0  0  0  0  0  0  0  0  0  0  0  0
   17.9629   19.4177   23.7234 H   0  0  0  0  0  0  0  0  0  0  0  0
   18.9420   18.4877   25.4162 C   0  0  0  0  0  0  0  0  0  0  0  0
   18.4533   17.5187   25.2483 H   0  0  0  0  0  0  0  0  0  0  0  0
   18.3096   19.0291   26.1323 H   0  0  0  0  0  0  0  0  0  0  0  0
   20.3253   18.2403   26.0515 C   0  0  0  0  0  0  0  0  0  0  0  0
   20.2040   17.6609   26.9708 H   0  0  0  0  0  0  0  0  0  0  0  0
   20.9493   17.6612   25.3659 H   0  0  0  0  0  0  0  0  0  0  0  0
   21.0695   19.5132   26.4033 N   0  3  0  0  0  0  0  0  0  0  0  0
   20.5444   20.0889   27.0695 H   0  0  0  0  0  0  0  0  0  0  0  0
   21.2430   20.0902   25.5745 H   0  0  0  0  0  0  0  0  0  0  0  0
   21.9811   19.3163   26.8304 H   0  0  0  0  0  0  0  0  0  0  0  0
  1  2  1  0  0  0  0
  1  3  1  0  0  0  0
  1  4  1  0  0  0  0
  1  5  1  0  0  0  0
  5  6  1  0  0  0  0
  5  7  1  0  0  0  0
  5  8  1  0  0  0  0
  8  9  1  0  0  0  0
  8 10  1  0  0  0  0
  8 11  1  0  0  0  0
 11 12  1  0  0  0  0
 11 13  1  0  0  0  0
 11 14  1  0  0  0  0
 14 15  1  0  0  0  0
 14 16  1  0  0  0  0
 14 17  1  0  0  0  0
 17 18  1  0  0  0  0
 17 19  1  0  0  0  0
 17 20  1  0  0  0  0
 20 21  1  0  0  0  0
 20 22  1  0  0  0  0
 20 23  1  0  0  0  0
 23 24  1  0  0  0  0
 23 25  1  0  0  0  0
 23 26  1  0  0  0  0
M  END
> <VM2 Rank>
13

> <Conf_Id>
198

> <Probability>
1.88

> <Sum Probability>
44.13

> <Delta G>
0.842

> <G>
49.103

> <E>
16.466

> <-TS>
32.638

> <U+W>
-4.996

> <U>
48.668

> <W>
-53.664

> <W(PB)>
-55.973

> <W(SA)>
2.309

> <Valence>
2.544

> <Coulomb>
45.478

> <VdW>
0.646

> <VdW6>
-7.095

> <VdW12>
7.741

> <Bond>
0.176

> <Angle>
0.630

> <Pdih>
1.738

> <Idih>
0.000

> <Tether>
0.000

$$$$
VeraChem MOL file


 26 25  0  0  0  0  0  0  0  0999 V2000     
   19.4647   18.1895   19.6037 C   0  0  0  0  0  0  0  0  0  0  0  0
   18.3890   18.3727   19.7235 H   0  0  0  0  0  0  0  0  0  0  0  0
   19.6545   17.9870   18.5417 H   0  0  0  0  0  0  0  0  0  0  0  0
   19.7239   17.2825   20.1636 H   0  0  0  0  0  0  0  0  0  0  0  0
   20.2917   19.4058   20.0785 C   0  0  0  0  0  0  0  0  0  0  0  0
   20.0871   20.2550   19.4115 H   0  0  0  0  0  0  0  0  0  0  0  0
   21.3637   19.1863   19.9765 H   0  0  0  0  0  0  0  0  0  0  0  0
   19.9806   19.8314   21.5337 C   0  0  0  0  0  0  0  0  0  0  0  0
   20.5245   20.7616   21.7487 H   0  0  0  0  0  0  0  0  0  0  0  0
   18.9120   20.0700   21.6254 H   0  0  0  0  0  0  0  0  0  0  0  0
   20.3696   18.7642   22.5848 C   0  0  0  0  0  0  0  0  0  0  0  0
   21.4257   18.4901   22.4552 H   0  0  0  0  0  0  0  0  0  0  0  0
   19.7808   17.8512   22.4260 H   0  0  0  0  0  0  0  0  0  0  0  0
   20.1401   19.2695   24.0273 C   0  0  0  0  0  0  0  0  0  0  0  0
   20.7336   20.1787   24.1967 H   0  0  0  0  0  0  0  0  0  0  0  0
   19.0852   19.5499   24.1481 H   0  0  0  0  0  0  0  0  0  0  0  0
   20.5244   18.2010   25.0780 C   0  0  0  0  0  0  0  0  0  0  0  0
   21.5693   17.8997   24.9249 H   0  0  0  0  0  0  0  0  0  0  0  0
   19.9144   17.2986   24.9381 H   0  0  0  0  0  0  0  0  0  0  0  0
   20.3702   18.7067   26.5254 C   0  0  0  0  0  0  0  0  0  0  0  0
   20.7342   17.9424   27.2173 H   0  0  0  0  0  0  0  0  0  0  0  0
   20.9720   19.6086   26.6663 H   0  0  0  0  0  0  0  0  0  0  0  0
   18.9397   19.0308   26.9096 N   0  3  0  0  0  0  0  0  0  0  0  0
   18.5467   19.7711   26.3202 H   0  0  0  0  0  0  0  0  0  0  0  0
   18.8700   19.3519   27.8814 H   0  0  0  0  0  0  0  0  0  0  0  0
   18.3269   18.2139   26.8196 H   0  0  0  0  0  0  0  0  0  0  0  0
  1  2  1  0  0  0  0
  1  3  1  0  0  0  0
  1  4  1  0  0  0  0
  1  5  1  0  0  0  0
  5  6  1  0  0  0  0
  5  7  1  0  0  0  0
  5  8  1  0  0  0  0
  8  9  1  0  0  0  0
  8 10  1  0  0  0  0
  8 11  1  0  0  0  0
 11 12  1  0  0  0  0
 11 13  1  0  0  0  0
 11 14  1  0  0  0  0
 14 15  1  0  0  0  0
 14 16  1  0  0  0  0
 14 17  1  0  0  0  0
 17 18  1  0  0  0  0
 17 19  1  0  0  0  0
 17 20  1  0  0  0  0
 20 21  1  0  0  0  0
 20 22  1  0  0  0  0
 20 23  1  0  0  0  0
 23 24  1  0  0  0  0
 23 25  1  0  0  0  0
 23 26  1  0  0  0  0
M  END
> <VM2 Rank>
14

> <Conf_Id>
473

> <Probability>
1.83

> <Sum Probability>
45.97

> <Delta G>
0.856

> <G>
49.118

> <E>
16.552

> <-TS>
32.566

> <U+W>
-4.910

> <U>
48.485

> <W>
-53.396

> <W(PB)>
-55.720

> <W(SA)>
2.324

> <Valence>
2.763

> <Coulomb>
44.894

> <VdW>
0.828

> <VdW6>
-6.904

> <VdW12>
7.733

> <Bond>
0.184

> <Angle>
0.675

> <Pdih>
1.904

> <Idih>
0.000

> <Tether>
0.000

$$$$
VeraChem MOL file


 26 25  0  0  0  0  0  0  0  0999 V2000     
   21.0711   19.2501   19.6574 C   0  0  0  0  0  0  0  0  0  0  0  0
   21.3188   20.3068   19.8214 H   0  0  0  0  0  0  0  0  0  0  0  0
   21.7769   18.6377   20.2321 H   0  0  0  0  0  0  0  0  0  0  0  0
   21.2321   19.0286   18.5944 H   0  0  0  0  0  0  0  0  0  0  0  0
   19.6073   18.9541   20.0556 C   0  0  0  0  0  0  0  0  0  0  0  0
   19.3936   17.8858   19.9107 H   0  0  0  0  0  0  0  0  0  0  0  0
   18.9382   19.4966   19.3731 H   0  0  0  0  0  0  0  0  0  0  0  0
   19.2706   19.3626   21.5100 C   0  0  0  0  0  0  0  0  0  0  0  0
   19.4657   20.4356   21.6440 H   0  0  0  0  0  0  0  0  0  0  0  0
   18.1927   19.2221   21.6708 H   0  0  0  0  0  0  0  0  0  0  0  0
   20.0499   18.5532   22.5741 C   0  0  0  0  0  0  0  0  0  0  0  0
   21.1269   18.7400   22.4710 H   0  0  0  0  0  0  0  0  0  0  0  0
   19.8941   17.4789   22.4040 H   0  0  0  0  0  0  0  0  0  0  0  0
   19.6084   18.9184   24.0095 C   0  0  0  0  0  0  0  0  0  0  0  0
   19.7583   19.9943   24.1706 H   0  0  0  0  0  0  0  0  0  0  0  0
   18.5326   18.7253   24.1232 H   0  0  0  0  0  0  0  0  0  0  0  0
   20.3909   18.1128   25.0736 C   0  0  0  0  0  0  0  0  0  0  0  0
   21.4655   18.3229   24.9900 H   0  0  0  0  0  0  0  0  0  0  0  0
   20.2657   17.0389   24.8812 H   0  0  0  0  0  0  0  0  0  0  0  0
   19.9191   18.4089   26.5103 C   0  0  0  0  0  0  0  0  0  0  0  0
   18.8481   18.2061   26.5952 H   0  0  0  0  0  0  0  0  0  0  0  0
   20.4467   17.7525   27.2077 H   0  0  0  0  0  0  0  0  0  0  0  0
   20.1637   19.8389   26.9506 N   0  3  0  0  0  0  0  0  0  0  0  0
   19.8505   19.9994   27.9142 H   0  0  0  0  0  0  0  0  0  0  0  0
   19.6648   20.5094   26.3576 H   0  0  0  0  0  0  0  0  0  0  0  0
   21.1586   20.0836   26.9145 H   0  0  0  0  0  0  0  0  0  0  0  0
  1  2  1  0  0  0  0
  1  3  1  0  0  0  0
  1  4  1  0  0  0  0
  1  5  1  0  0  0  0
  5  6  1  0  0  0  0
  5  7  1  0  0  0  0
  5  8  1  0  0  0  0
  8  9  1  0  0  0  0
  8 10  1  0  0  0  0
  8 11  1  0  0  0  0
 11 12  1  0  0  0  0
 11 13  1  0  0  0  0
 11 14  1  0  0  0  0
 14 15  1  0  0  0  0
 14 16  1  0  0  0  0
 14 17  1  0  0  0  0
 17 18  1  0  0  0  0
 17 19  1  0  0  0  0
 17 20  1  0  0  0  0
 20 21  1  0  0  0  0
 20 22  1  0  0  0  0
 20 23  1  0  0  0  0
 23 24  1  0  0  0  0
 23 25  1  0  0  0  0
 23 26  1  0  0  0  0
M  END
> <VM2 Rank>
15

> <Conf_Id>
1278

> <Probability>
1.81

> <Sum Probability>
47.77

> <Delta G>
0.865

> <G>
49.127

> <E>
16.560

> <-TS>
32.566

> <U+W>
-4.901

> <U>
48.485

> <W>
-53.387

> <W(PB)>
-55.718

> <W(SA)>
2.331

> <Valence>
2.763

> <Coulomb>
44.894

> <VdW>
0.828

> <VdW6>
-6.904

> <VdW12>
7.733

> <Bond>
0.184

> <Angle>
0.675

> <Pdih>
1.904

> <Idih>
0.000

> <Tether>
0.000

$$$$
VeraChem MOL file


 26 25  0  0  0  0  0  0  0  0999 V2000     
   19.5584   18.7263   19.1789 C   0  0  0  0  0  0  0  0  0  0  0  0
   19.8412   18.0038   18.4024 H   0  0  0  0  0  0  0  0  0  0  0  0
   18.4626   18.7388   19.2446 H   0  0  0  0  0  0  0  0  0  0  0  0
   19.8927   19.7198   18.8527 H   0  0  0  0  0  0  0  0  0  0  0  0
   20.1911   18.3453   20.5341 C   0  0  0  0  0  0  0  0  0  0  0  0
   21.2845   18.3081   20.4284 H   0  0  0  0  0  0  0  0  0  0  0  0
   19.8654   17.3345   20.8171 H   0  0  0  0  0  0  0  0  0  0  0  0
   19.8085   19.3472   21.6460 C   0  0  0  0  0  0  0  0  0  0  0  0
   20.1336   20.3563   21.3569 H   0  0  0  0  0  0  0  0  0  0  0  0
   18.7149   19.3824   21.7466 H   0  0  0  0  0  0  0  0  0  0  0  0
   20.4408   18.9693   23.0045 C   0  0  0  0  0  0  0  0  0  0  0  0
   21.5345   18.9381   22.9032 H   0  0  0  0  0  0  0  0  0  0  0  0
   20.1178   17.9574   23.2829 H   0  0  0  0  0  0  0  0  0  0  0  0
   20.0540   19.9734   24.1168 C   0  0  0  0  0  0  0  0  0  0  0  0
   20.3413   20.9864   23.8029 H   0  0  0  0  0  0  0  0  0  0  0  0
   18.9628   19.9903   24.2390 H   0  0  0  0  0  0  0  0  0  0  0  0
   20.7322   19.6685   25.4761 C   0  0  0  0  0  0  0  0  0  0  0  0
   20.4497   20.4408   26.2038 H   0  0  0  0  0  0  0  0  0  0  0  0
   21.8219   19.7407   25.3610 H   0  0  0  0  0  0  0  0  0  0  0  0
   20.3868   18.2808   26.0535 C   0  0  0  0  0  0  0  0  0  0  0  0
   20.7056   17.5005   25.3577 H   0  0  0  0  0  0  0  0  0  0  0  0
   20.9239   18.1356   26.9948 H   0  0  0  0  0  0  0  0  0  0  0  0
   18.9091   18.0882   26.3311 N   0  3  0  0  0  0  0  0  0  0  0  0
   18.3496   18.1818   25.4777 H   0  0  0  0  0  0  0  0  0  0  0  0
   18.5555   18.7769   27.0031 H   0  0  0  0  0  0  0  0  0  0  0  0
   18.7122   17.1601   26.7210 H   0  0  0  0  0  0  0  0  0  0  0  0
  1  2  1  0  0  0  0
  1  3  1  0  0  0  0
  1  4  1  0  0  0  0
  1  5  1  0  0  0  0
  5  6  1  0  0  0  0
  5  7  1  0  0  0  0
  5  8  1  0  0  0  0
  8  9  1  0  0  0  0
  8 10  1  0  0  0  0
  8 11  1  0  0  0  0
 11 12  1  0  0  0  0
 11 13  1  0  0  0  0
 11 14  1  0  0  0  0
 14 15  1  0  0  0  0
 14 16  1  0  0  0  0
 14 17  1  0  0  0  0
 17 18  1  0  0  0  0
 17 19  1  0  0  0  0
 17 20  1  0  0  0  0
 20 21  1  0  0  0  0
 20 22  1  0  0  0  0
 20 23  1  0  0  0  0
 23 24  1  0  0  0  0
 23 25  1  0  0  0  0
 23 26  1  0  0  0  0
M  END
> <VM2 Rank>
16

> <Conf_Id>
761

> <Probability>
1.78

> <Sum Probability>
49.55

> <Delta G>
0.874

> <G>
49.136

> <E>
16.498

> <-TS>
32.638

> <U+W>
-4.964

> <U>
48.668

> <W>
-53.631

> <W(PB)>
-55.949

> <W(SA)>
2.318

> <Valence>
2.544

> <Coulomb>
45.478

> <VdW>
0.646

> <VdW6>
-7.095

> <VdW12>
7.741

> <Bond>
0.176

> <Angle>
0.630

> <Pdih>
1.738

> <Idih>
0.000

> <Tether>
0.000

$$$$
VeraChem MOL file


 26 25  0  0  0  0  0  0  0  0999 V2000     
   19.3224   18.9187   19.4842 C   0  0  0  0  0  0  0  0  0  0  0  0
   19.3690   18.5794   18.4413 H   0  0  0  0  0  0  0  0  0  0  0  0
   18.6163   18.2657   20.0118 H   0  0  0  0  0  0  0  0  0  0  0  0
   18.9168   19.9388   19.4875 H   0  0  0  0  0  0  0  0  0  0  0  0
   20.7262   18.8767   20.1296 C   0  0  0  0  0  0  0  0  0  0  0  0
   21.4231   19.4456   19.4984 H   0  0  0  0  0  0  0  0  0  0  0  0
   21.0967   17.8421   20.1413 H   0  0  0  0  0  0  0  0  0  0  0  0
   20.7627   19.4621   21.5620 C   0  0  0  0  0  0  0  0  0  0  0  0
   21.8083   19.4955   21.8980 H   0  0  0  0  0  0  0  0  0  0  0  0
   20.4111   20.5029   21.5418 H   0  0  0  0  0  0  0  0  0  0  0  0
   19.9297   18.6492   22.5819 C   0  0  0  0  0  0  0  0  0  0  0  0
   20.2495   17.5982   22.5620 H   0  0  0  0  0  0  0  0  0  0  0  0
   18.8698   18.6661   22.2961 H   0  0  0  0  0  0  0  0  0  0  0  0
   20.0766   19.2061   24.0161 C   0  0  0  0  0  0  0  0  0  0  0  0
   21.1361   19.1890   24.3043 H   0  0  0  0  0  0  0  0  0  0  0  0
   19.7575   20.2575   24.0353 H   0  0  0  0  0  0  0  0  0  0  0  0
   19.2414   18.3956   25.0354 C   0  0  0  0  0  0  0  0  0  0  0  0
   19.5731   17.3487   25.0462 H   0  0  0  0  0  0  0  0  0  0  0  0
   18.1897   18.3877   24.7194 H   0  0  0  0  0  0  0  0  0  0  0  0
   19.3174   18.9741   26.4615 C   0  0  0  0  0  0  0  0  0  0  0  0
   18.9936   20.0183   26.4529 H   0  0  0  0  0  0  0  0  0  0  0  0
   18.6445   18.4138   27.1164 H   0  0  0  0  0  0  0  0  0  0  0  0
   20.7047   18.9166   27.0704 N   0  3  0  0  0  0  0  0  0  0  0  0
   20.7184   19.2970   28.0230 H   0  0  0  0  0  0  0  0  0  0  0  0
   21.3825   19.4555   26.5226 H   0  0  0  0  0  0  0  0  0  0  0  0
   21.0561   17.9552   27.1270 H   0  0  0  0  0  0  0  0  0  0  0  0
  1  2  1  0  0  0  0
  1  3  1  0  0  0  0
  1  4  1  0  0  0  0
  1  5  1  0  0  0  0
  5  6  1  0  0  0  0
  5  7  1  0  0  0  0
  5  8  1  0  0  0  0
  8  9  1  0  0  0  0
  8 10  1  0  0  0  0
  8 11  1  0  0  0  0
 11 12  1  0  0  0  0
 11 13  1  0  0  0  0
 11 14  1  0  0  0  0
 14 15  1  0  0  0  0
 14 16  1  0  0  0  0
 14 17  1  0  0  0  0
 17 18  1  0  0  0  0
 17 19  1  0  0  0  0
 17 20  1  0  0  0  0
 20 21  1  0  0  0  0
 20 22  1  0  0  0  0
 20 23  1  0  0  0  0
 23 24  1  0  0  0  0
 23 25  1  0  0  0  0
 23 26  1  0  0  0  0
M  END
> <VM2 Rank>
17

> <Conf_Id>
1075

> <Probability>
1.74

> <Sum Probability>
51.29

> <Delta G>
0.887

> <G>
49.148

> <E>
16.582

> <-TS>
32.566

> <U+W>
-4.880

> <U>
48.461

> <W>
-53.341

> <W(PB)>
-55.654

> <W(SA)>
2.313

> <Valence>
2.762

> <Coulomb>
44.868

> <VdW>
0.831

> <VdW6>
-6.903

> <VdW12>
7.734

> <Bond>
0.184

> <Angle>
0.674

> <Pdih>
1.903

> <Idih>
0.000

> <Tether>
0.000

$$$$
VeraChem MOL file


 26 25  0  0  0  0  0  0  0  0999 V2000     
   19.4773   19.8804   19.4236 C   0  0  0  0  0  0  0  0  0  0  0  0
   19.7383   19.7514   18.3652 H   0  0  0  0  0  0  0  0  0  0  0  0
   18.3878   19.7830   19.5163 H   0  0  0  0  0  0  0  0  0  0  0  0
   19.7556   20.9010   19.7172 H   0  0  0  0  0  0  0  0  0  0  0  0
   20.2040   18.8345   20.2954 C   0  0  0  0  0  0  0  0  0  0  0  0
   21.2896   18.9347   20.1564 H   0  0  0  0  0  0  0  0  0  0  0  0
   19.9327   17.8252   19.9554 H   0  0  0  0  0  0  0  0  0  0  0  0
   19.8533   18.9934   21.7915 C   0  0  0  0  0  0  0  0  0  0  0  0
   20.1206   20.0076   22.1158 H   0  0  0  0  0  0  0  0  0  0  0  0
   18.7676   18.8905   21.9255 H   0  0  0  0  0  0  0  0  0  0  0  0
   20.5847   17.9476   22.6670 C   0  0  0  0  0  0  0  0  0  0  0  0
   21.6713   18.0821   22.5754 H   0  0  0  0  0  0  0  0  0  0  0  0
   20.3651   16.9422   22.2819 H   0  0  0  0  0  0  0  0  0  0  0  0
   20.1795   17.9997   24.1606 C   0  0  0  0  0  0  0  0  0  0  0  0
   19.0963   17.8409   24.2478 H   0  0  0  0  0  0  0  0  0  0  0  0
   20.6589   17.1589   24.6810 H   0  0  0  0  0  0  0  0  0  0  0  0
   20.5814   19.3206   24.8631 C   0  0  0  0  0  0  0  0  0  0  0  0
   20.0333   20.1675   24.4316 H   0  0  0  0  0  0  0  0  0  0  0  0
   21.6484   19.5145   24.6910 H   0  0  0  0  0  0  0  0  0  0  0  0
   20.3317   19.2814   26.3831 C   0  0  0  0  0  0  0  0  0  0  0  0
   20.8762   18.4421   26.8240 H   0  0  0  0  0  0  0  0  0  0  0  0
   20.7033   20.2046   26.8360 H   0  0  0  0  0  0  0  0  0  0  0  0
   18.8691   19.1415   26.7567 N   0  3  0  0  0  0  0  0  0  0  0  0
   18.7355   19.1294   27.7737 H   0  0  0  0  0  0  0  0  0  0  0  0
   18.4654   18.2737   26.3908 H   0  0  0  0  0  0  0  0  0  0  0  0
   18.3066   19.9161   26.3900 H   0  0  0  0  0  0  0  0  0  0  0  0
  1  2  1  0  0  0  0
  1  3  1  0  0  0  0
  1  4  1  0  0  0  0
  1  5  1  0  0  0  0
  5  6  1  0  0  0  0
  5  7  1  0  0  0  0
  5  8  1  0  0  0  0
  8  9  1  0  0  0  0
  8 10  1  0  0  0  0
  8 11  1  0  0  0  0
 11 12  1  0  0  0  0
 11 13  1  0  0  0  0
 11 14  1  0  0  0  0
 14 15  1  0  0  0  0
 14 16  1  0  0  0  0
 14 17  1  0  0  0  0
 17 18  1  0  0  0  0
 17 19  1  0  0  0  0
 17 20  1  0  0  0  0
 20 21  1  0  0  0  0
 20 22  1  0  0  0  0
 20 23  1  0  0  0  0
 23 24  1  0  0  0  0
 23 25  1  0  0  0  0
 23 26  1  0  0  0  0
M  END
> <VM2 Rank>
18

> <Conf_Id>
1275

> <Probability>
1.69

> <Sum Probability>
52.99

> <Delta G>
0.904

> <G>
49.165

> <E>
16.599

> <-TS>
32.567

> <U+W>
-4.863

> <U>
48.698

> <W>
-53.561

> <W(PB)>
-55.857

> <W(SA)>
2.296

> <Valence>
2.792

> <Coulomb>
45.121

> <VdW>
0.785

> <VdW6>
-6.974

> <VdW12>
7.758

> <Bond>
0.189

> <Angle>
0.672

> <Pdih>
1.931

> <Idih>
0.000

> <Tether>
0.000

$$$$
VeraChem MOL file


 26 25  0  0  0  0  0  0  0  0999 V2000     
   19.5207   19.9091   19.4250 C   0  0  0  0  0  0  0  0  0  0  0  0
   19.5864   19.6511   18.3600 H   0  0  0  0  0  0  0  0  0  0  0  0
   18.4602   20.0456   19.6738 H   0  0  0  0  0  0  0  0  0  0  0  0
   20.0327   20.8691   19.5713 H   0  0  0  0  0  0  0  0  0  0  0  0
   20.1567   18.8032   20.2938 C   0  0  0  0  0  0  0  0  0  0  0  0
   21.2062   18.6662   19.9979 H   0  0  0  0  0  0  0  0  0  0  0  0
   19.6459   17.8493   20.1014 H   0  0  0  0  0  0  0  0  0  0  0  0
   20.0784   19.1421   21.7990 C   0  0  0  0  0  0  0  0  0  0  0  0
   20.5918   20.0951   21.9865 H   0  0  0  0  0  0  0  0  0  0  0  0
   19.0266   19.2852   22.0792 H   0  0  0  0  0  0  0  0  0  0  0  0
   20.7123   18.0319   22.6713 C   0  0  0  0  0  0  0  0  0  0  0  0
   21.7401   17.8502   22.3278 H   0  0  0  0  0  0  0  0  0  0  0  0
   20.1674   17.0890   22.5251 H   0  0  0  0  0  0  0  0  0  0  0  0
   20.7536   18.3788   24.1798 C   0  0  0  0  0  0  0  0  0  0  0  0
   21.3144   17.5917   24.7028 H   0  0  0  0  0  0  0  0  0  0  0  0
   21.3197   19.3091   24.3221 H   0  0  0  0  0  0  0  0  0  0  0  0
   19.3497   18.5072   24.8220 C   0  0  0  0  0  0  0  0  0  0  0  0
   18.7616   17.6082   24.5946 H   0  0  0  0  0  0  0  0  0  0  0  0
   18.8061   19.3571   24.3906 H   0  0  0  0  0  0  0  0  0  0  0  0
   19.4128   18.6745   26.3524 C   0  0  0  0  0  0  0  0  0  0  0  0
   18.3979   18.6821   26.7590 H   0  0  0  0  0  0  0  0  0  0  0  0
   19.9505   17.8307   26.7931 H   0  0  0  0  0  0  0  0  0  0  0  0
   20.0967   19.9522   26.7977 N   0  3  0  0  0  0  0  0  0  0  0  0
   19.6222   20.7849   26.4340 H   0  0  0  0  0  0  0  0  0  0  0  0
   21.0693   19.9933   26.4777 H   0  0  0  0  0  0  0  0  0  0  0  0
   20.1130   20.0390   27.8197 H   0  0  0  0  0  0  0  0  0  0  0  0
  1  2  1  0  0  0  0
  1  3  1  0  0  0  0
  1  4  1  0  0  0  0
  1  5  1  0  0  0  0
  5  6  1  0  0  0  0
  5  7  1  0  0  0  0
  5  8  1  0  0  0  0
  8  9  1  0  0  0  0
  8 10  1  0  0  0  0
  8 11  1  0  0  0  0
 11 12  1  0  0  0  0
 11 13  1  0  0  0  0
 11 14  1  0  0  0  0
 14 15  1  0  0  0  0
 14 16  1  0  0  0  0
 14 17  1  0  0  0  0
 17 18  1  0  0  0  0
 17 19  1  0  0  0  0
 17 20  1  0  0  0  0
 20 21  1  0  0  0  0
 20 22  1  0  0  0  0
 20 23  1  0  0  0  0
 23 24  1  0  0  0  0
 23 25  1  0  0  0  0
 23 26  1  0  0  0  0
M  END
> <VM2 Rank>
19

> <Conf_Id>
201

> <Probability>
1.65

> <Sum Probability>
54.63

> <Delta G>
0.920

> <G>
49.181

> <E>
16.614

> <-TS>
32.567

> <U+W>
-4.848

> <U>
48.698

> <W>
-53.546

> <W(PB)>
-55.872

> <W(SA)>
2.327

> <Valence>
2.792

> <Coulomb>
45.121

> <VdW>
0.785

> <VdW6>
-6.973

> <VdW12>
7.758

> <Bond>
0.189

> <Angle>
0.672

> <Pdih>
1.931

> <Idih>
0.000

> <Tether>
0.000

$$$$
VeraChem MOL file


 26 25  0  0  0  0  0  0  0  0999 V2000     
   19.5018   19.7818   19.3853 C   0  0  0  0  0  0  0  0  0  0  0  0
   20.1445   19.2406   18.6787 H   0  0  0  0  0  0  0  0  0  0  0  0
   18.4992   19.8504   18.9437 H   0  0  0  0  0  0  0  0  0  0  0  0
   19.8937   20.8018   19.4919 H   0  0  0  0  0  0  0  0  0  0  0  0
   19.4482   19.0631   20.7501 C   0  0  0  0  0  0  0  0  0  0  0  0
   19.0253   18.0577   20.6158 H   0  0  0  0  0  0  0  0  0  0  0  0
   18.7656   19.6102   21.4137 H   0  0  0  0  0  0  0  0  0  0  0  0
   20.8507   18.9581   21.3945 C   0  0  0  0  0  0  0  0  0  0  0  0
   21.5359   18.4793   20.6813 H   0  0  0  0  0  0  0  0  0  0  0  0
   21.2509   19.9650   21.5771 H   0  0  0  0  0  0  0  0  0  0  0  0
   20.8686   18.1453   22.7124 C   0  0  0  0  0  0  0  0  0  0  0  0
   21.9130   18.0245   23.0318 H   0  0  0  0  0  0  0  0  0  0  0  0
   20.4845   17.1331   22.5249 H   0  0  0  0  0  0  0  0  0  0  0  0
   20.0651   18.8060   23.8584 C   0  0  0  0  0  0  0  0  0  0  0  0
   20.4153   19.8373   23.9977 H   0  0  0  0  0  0  0  0  0  0  0  0
   19.0025   18.8617   23.5875 H   0  0  0  0  0  0  0  0  0  0  0  0
   20.2064   18.0192   25.1829 C   0  0  0  0  0  0  0  0  0  0  0  0
   21.2601   17.9848   25.4904 H   0  0  0  0  0  0  0  0  0  0  0  0
   19.8926   16.9790   25.0229 H   0  0  0  0  0  0  0  0  0  0  0  0
   19.3576   18.6148   26.3227 C   0  0  0  0  0  0  0  0  0  0  0  0
   18.3084   18.6554   26.0179 H   0  0  0  0  0  0  0  0  0  0  0  0
   19.4319   17.9720   27.2042 H   0  0  0  0  0  0  0  0  0  0  0  0
   19.7825   20.0107   26.7347 N   0  3  0  0  0  0  0  0  0  0  0  0
   19.2067   20.3727   27.5026 H   0  0  0  0  0  0  0  0  0  0  0  0
   19.7020   20.6763   25.9598 H   0  0  0  0  0  0  0  0  0  0  0  0
   20.7563   20.0334   27.0543 H   0  0  0  0  0  0  0  0  0  0  0  0
  1  2  1  0  0  0  0
  1  3  1  0  0  0  0
  1  4  1  0  0  0  0
  1  5  1  0  0  0  0
  5  6  1  0  0  0  0
  5  7  1  0  0  0  0
  5  8  1  0  0  0  0
  8  9  1  0  0  0  0
  8 10  1  0  0  0  0
  8 11  1  0  0  0  0
 11 12  1  0  0  0  0
 11 13  1  0  0  0  0
 11 14  1  0  0  0  0
 14 15  1  0  0  0  0
 14 16  1  0  0  0  0
 14 17  1  0  0  0  0
 17 18  1  0  0  0  0
 17 19  1  0  0  0  0
 17 20  1  0  0  0  0
 20 21  1  0  0  0  0
 20 22  1  0  0  0  0
 20 23  1  0  0  0  0
 23 24  1  0  0  0  0
 23 25  1  0  0  0  0
 23 26  1  0  0  0  0
M  END
> <VM2 Rank>
20

> <Conf_Id>
1290

> <Probability>
1.60

> <Sum Probability>
56.24

> <Delta G>
0.937

> <G>
49.198

> <E>
16.642

> <-TS>
32.556

> <U+W>
-4.820

> <U>
48.735

> <W>
-53.555

> <W(PB)>
-55.891

> <W(SA)>
2.336

> <Valence>
2.803

> <Coulomb>
45.123

> <VdW>
0.809

> <VdW6>
-6.953

> <VdW12>
7.761

> <Bond>
0.188

> <Angle>
0.699

> <Pdih>
1.917

> <Idih>
0.000

> <Tether>
0.000

$$$$
VeraChem MOL file


 26 25  0  0  0  0  0  0  0  0999 V2000     
   19.6033   19.8490   19.3888 C   0  0  0  0  0  0  0  0  0  0  0  0
   18.5076   19.8862   19.4456 H   0  0  0  0  0  0  0  0  0  0  0  0
   19.9532   20.8111   18.9926 H   0  0  0  0  0  0  0  0  0  0  0  0
   19.8822   19.0675   18.6700 H   0  0  0  0  0  0  0  0  0  0  0  0
   20.2213   19.5738   20.7761 C   0  0  0  0  0  0  0  0  0  0  0  0
   19.9547   20.3957   21.4537 H   0  0  0  0  0  0  0  0  0  0  0  0
   21.3171   19.5717   20.6927 H   0  0  0  0  0  0  0  0  0  0  0  0
   19.7389   18.2237   21.3573 C   0  0  0  0  0  0  0  0  0  0  0  0
   18.6484   18.2460   21.4900 H   0  0  0  0  0  0  0  0  0  0  0  0
   19.9441   17.4279   20.6280 H   0  0  0  0  0  0  0  0  0  0  0  0
   20.4175   17.8473   22.6973 C   0  0  0  0  0  0  0  0  0  0  0  0
   21.5069   17.8082   22.5591 H   0  0  0  0  0  0  0  0  0  0  0  0
   20.1049   16.8301   22.9712 H   0  0  0  0  0  0  0  0  0  0  0  0
   20.0717   18.8102   23.8586 C   0  0  0  0  0  0  0  0  0  0  0  0
   20.4493   19.8168   23.6360 H   0  0  0  0  0  0  0  0  0  0  0  0
   18.9802   18.8896   23.9496 H   0  0  0  0  0  0  0  0  0  0  0  0
   20.6775   18.3302   25.1987 C   0  0  0  0  0  0  0  0  0  0  0  0
   21.7637   18.2144   25.0856 H   0  0  0  0  0  0  0  0  0  0  0  0
   20.2820   17.3390   25.4577 H   0  0  0  0  0  0  0  0  0  0  0  0
   20.4095   19.3093   26.3579 C   0  0  0  0  0  0  0  0  0  0  0  0
   20.9298   18.9611   27.2544 H   0  0  0  0  0  0  0  0  0  0  0  0
   20.7975   20.2988   26.1012 H   0  0  0  0  0  0  0  0  0  0  0  0
   18.9412   19.4555   26.7063 N   0  3  0  0  0  0  0  0  0  0  0  0
   18.5238   18.5598   26.9792 H   0  0  0  0  0  0  0  0  0  0  0  0
   18.3974   19.8152   25.9158 H   0  0  0  0  0  0  0  0  0  0  0  0
   18.7983   20.1033   27.4887 H   0  0  0  0  0  0  0  0  0  0  0  0
  1  2  1  0  0  0  0
  1  3  1  0  0  0  0
  1  4  1  0  0  0  0
  1  5  1  0  0  0  0
  5  6  1  0  0  0  0
  5  7  1  0  0  0  0
  5  8  1  0  0  0  0
  8  9  1  0  0  0  0
  8 10  1  0  0  0  0
  8 11  1  0  0  0  0
 11 12  1  0  0  0  0
 11 13  1  0  0  0  0
 11 14  1  0  0  0  0
 14 15  1  0  0  0  0
 14 16  1  0  0  0  0
 14 17  1  0  0  0  0
 17 18  1  0  0  0  0
 17 19  1  0  0  0  0
 17 20  1  0  0  0  0
 20 21  1  0  0  0  0
 20 22  1  0  0  0  0
 20 23  1  0  0  0  0
 23 24  1  0  0  0  0
 23 25  1  0  0  0  0
 23 26  1  0  0  0  0
M  END
> <VM2 Rank>
21

> <Conf_Id>
778

> <Probability>
1.56

> <Sum Probability>
57.80

> <Delta G>
0.951

> <G>
49.213

> <E>
16.656

> <-TS>
32.557

> <U+W>
-4.806

> <U>
48.735

> <W>
-53.541

> <W(PB)>
-55.862

> <W(SA)>
2.321

> <Valence>
2.803

> <Coulomb>
45.123

> <VdW>
0.809

> <VdW6>
-6.953

> <VdW12>
7.762

> <Bond>
0.188

> <Angle>
0.699

> <Pdih>
1.917

> <Idih>
0.000

> <Tether>
0.000

$$$$
VeraChem MOL file


 26 25  0  0  0  0  0  0  0  0999 V2000     
   20.7703   19.7659   19.4728 C   0  0  0  0  0  0  0  0  0  0  0  0
   20.4254   19.0388   18.7260 H   0  0  0  0  0  0  0  0  0  0  0  0
   20.1268   20.6531   19.4090 H   0  0  0  0  0  0  0  0  0  0  0  0
   21.7900   20.0688   19.2017 H   0  0  0  0  0  0  0  0  0  0  0  0
   20.7407   19.1605   20.8923 C   0  0  0  0  0  0  0  0  0  0  0  0
   21.1304   19.9013   21.6029 H   0  0  0  0  0  0  0  0  0  0  0  0
   21.4153   18.2939   20.9326 H   0  0  0  0  0  0  0  0  0  0  0  0
   19.3115   18.7297   21.2985 C   0  0  0  0  0  0  0  0  0  0  0  0
   18.6495   19.6065   21.3105 H   0  0  0  0  0  0  0  0  0  0  0  0
   18.9117   18.0527   20.5309 H   0  0  0  0  0  0  0  0  0  0  0  0
   19.2456   18.0104   22.6683 C   0  0  0  0  0  0  0  0  0  0  0  0
   19.8969   17.1257   22.6507 H   0  0  0  0  0  0  0  0  0  0  0  0
   18.2226   17.6371   22.8150 H   0  0  0  0  0  0  0  0  0  0  0  0
   19.6276   18.9171   23.8631 C   0  0  0  0  0  0  0  0  0  0  0  0
   20.6719   19.2384   23.7640 H   0  0  0  0  0  0  0  0  0  0  0  0
   19.0092   19.8252   23.8470 H   0  0  0  0  0  0  0  0  0  0  0  0
   19.4389   18.1901   25.2157 C   0  0  0  0  0  0  0  0  0  0  0  0
   20.0739   17.2950   25.2537 H   0  0  0  0  0  0  0  0  0  0  0  0
   18.4009   17.8417   25.3001 H   0  0  0  0  0  0  0  0  0  0  0  0
   19.7488   19.0926   26.4257 C   0  0  0  0  0  0  0  0  0  0  0  0
   19.1235   19.9887   26.3863 H   0  0  0  0  0  0  0  0  0  0  0  0
   19.5154   18.5544   27.3484 H   0  0  0  0  0  0  0  0  0  0  0  0
   21.1976   19.5327   26.5046 N   0  3  0  0  0  0  0  0  0  0  0  0
   21.4740   20.0788   25.6829 H   0  0  0  0  0  0  0  0  0  0  0  0
   21.8356   18.7326   26.5662 H   0  0  0  0  0  0  0  0  0  0  0  0
   21.3727   20.1193   27.3277 H   0  0  0  0  0  0  0  0  0  0  0  0
  1  2  1  0  0  0  0
  1  3  1  0  0  0  0
  1  4  1  0  0  0  0
  1  5  1  0  0  0  0
  5  6  1  0  0  0  0
  5  7  1  0  0  0  0
  5  8  1  0  0  0  0
  8  9  1  0  0  0  0
  8 10  1  0  0  0  0
  8 11  1  0  0  0  0
 11 12  1  0  0  0  0
 11 13  1  0  0  0  0
 11 14  1  0  0  0  0
 14 15  1  0  0  0  0
 14 16  1  0  0  0  0
 14 17  1  0  0  0  0
 17 18  1  0  0  0  0
 17 19  1  0  0  0  0
 17 20  1  0  0  0  0
 20 21  1  0  0  0  0
 20 22  1  0  0  0  0
 20 23  1  0  0  0  0
 23 24  1  0  0  0  0
 23 25  1  0  0  0  0
 23 26  1  0  0  0  0
M  END
> <VM2 Rank>
22

> <Conf_Id>
490

> <Probability>
1.56

> <Sum Probability>
59.36

> <Delta G>
0.954

> <G>
49.216

> <E>
16.667

> <-TS>
32.549

> <U+W>
-4.795

> <U>
48.945

> <W>
-53.740

> <W(PB)>
-56.051

> <W(SA)>
2.311

> <Valence>
2.802

> <Coulomb>
45.335

> <VdW>
0.807

> <VdW6>
-6.962

> <VdW12>
7.769

> <Bond>
0.189

> <Angle>
0.696

> <Pdih>
1.917

> <Idih>
0.000

> <Tether>
0.000

$$$$
VeraChem MOL file


 26 25  0  0  0  0  0  0  0  0999 V2000     
   19.3557   19.3205   19.2239 C   0  0  0  0  0  0  0  0  0  0  0  0
   18.3018   19.1028   19.4410 H   0  0  0  0  0  0  0  0  0  0  0  0
   19.4850   20.4107   19.2156 H   0  0  0  0  0  0  0  0  0  0  0  0
   19.5760   18.9474   18.2152 H   0  0  0  0  0  0  0  0  0  0  0  0
   20.2847   18.6596   20.2643 C   0  0  0  0  0  0  0  0  0  0  0  0
   21.3316   18.8659   20.0006 H   0  0  0  0  0  0  0  0  0  0  0  0
   20.1572   17.5687   20.2262 H   0  0  0  0  0  0  0  0  0  0  0  0
   19.9963   19.1685   21.6941 C   0  0  0  0  0  0  0  0  0  0  0  0
   20.1273   20.2588   21.7275 H   0  0  0  0  0  0  0  0  0  0  0  0
   18.9461   18.9650   21.9403 H   0  0  0  0  0  0  0  0  0  0  0  0
   20.9247   18.5029   22.7385 C   0  0  0  0  0  0  0  0  0  0  0  0
   21.9694   18.6484   22.4306 H   0  0  0  0  0  0  0  0  0  0  0  0
   20.7547   17.4174   22.7477 H   0  0  0  0  0  0  0  0  0  0  0  0
   20.7543   19.0669   24.1707 C   0  0  0  0  0  0  0  0  0  0  0  0
   21.5386   18.6318   24.8041 H   0  0  0  0  0  0  0  0  0  0  0  0
   20.9306   20.1514   24.1623 H   0  0  0  0  0  0  0  0  0  0  0  0
   19.3668   18.7686   24.7926 C   0  0  0  0  0  0  0  0  0  0  0  0
   19.1724   17.6880   24.7796 H   0  0  0  0  0  0  0  0  0  0  0  0
   18.5799   19.2372   24.1888 H   0  0  0  0  0  0  0  0  0  0  0  0
   19.2362   19.2969   26.2344 C   0  0  0  0  0  0  0  0  0  0  0  0
   19.4482   20.3693   26.2542 H   0  0  0  0  0  0  0  0  0  0  0  0
   18.2112   19.1456   26.5837 H   0  0  0  0  0  0  0  0  0  0  0  0
   20.1623   18.6151   27.2226 N   0  3  0  0  0  0  0  0  0  0  0  0
   20.0391   18.9797   28.1735 H   0  0  0  0  0  0  0  0  0  0  0  0
   21.1475   18.7496   26.9754 H   0  0  0  0  0  0  0  0  0  0  0  0
   19.9956   17.6045   27.2657 H   0  0  0  0  0  0  0  0  0  0  0  0
  1  2  1  0  0  0  0
  1  3  1  0  0  0  0
  1  4  1  0  0  0  0
  1  5  1  0  0  0  0
  5  6  1  0  0  0  0
  5  7  1  0  0  0  0
  5  8  1  0  0  0  0
  8  9  1  0  0  0  0
  8 10  1  0  0  0  0
  8 11  1  0  0  0  0
 11 12  1  0  0  0  0
 11 13  1  0  0  0  0
 11 14  1  0  0  0  0
 14 15  1  0  0  0  0
 14 16  1  0  0  0  0
 14 17  1  0  0  0  0
 17 18  1  0  0  0  0
 17 19  1  0  0  0  0
 17 20  1  0  0  0  0
 20 21  1  0  0  0  0
 20 22  1  0  0  0  0
 20 23  1  0  0  0  0
 23 24  1  0  0  0  0
 23 25  1  0  0  0  0
 23 26  1  0  0  0  0
M  END
> <VM2 Rank>
23

> <Conf_Id>
1010

> <Probability>
1.46

> <Sum Probability>
60.82

> <Delta G>
0.990

> <G>
49.252

> <E>
16.717

> <-TS>
32.534

> <U+W>
-4.744

> <U>
48.583

> <W>
-53.327

> <W(PB)>
-55.653

> <W(SA)>
2.326

> <Valence>
2.825

> <Coulomb>
44.916

> <VdW>
0.842

> <VdW6>
-6.929

> <VdW12>
7.771

> <Bond>
0.195

> <Angle>
0.721

> <Pdih>
1.909

> <Idih>
0.000

> <Tether>
0.000

$$$$
VeraChem MOL file


 26 25  0  0  0  0  0  0  0  0999 V2000     
   19.1170   18.6754   19.4175 C   0  0  0  0  0  0  0  0  0  0  0  0
   18.5578   19.6182   19.3565 H   0  0  0  0  0  0  0  0  0  0  0  0
   19.9550   18.7285   18.7102 H   0  0  0  0  0  0  0  0  0  0  0  0
   18.4509   17.8666   19.0901 H   0  0  0  0  0  0  0  0  0  0  0  0
   19.6185   18.4204   20.8548 C   0  0  0  0  0  0  0  0  0  0  0  0
   20.1477   17.4579   20.8903 H   0  0  0  0  0  0  0  0  0  0  0  0
   18.7520   18.3328   21.5234 H   0  0  0  0  0  0  0  0  0  0  0  0
   20.5565   19.5508   21.3401 C   0  0  0  0  0  0  0  0  0  0  0  0
   21.3711   19.6747   20.6131 H   0  0  0  0  0  0  0  0  0  0  0  0
   20.0105   20.5042   21.3560 H   0  0  0  0  0  0  0  0  0  0  0  0
   21.1793   19.2857   22.7329 C   0  0  0  0  0  0  0  0  0  0  0  0
   21.9170   20.0737   22.9384 H   0  0  0  0  0  0  0  0  0  0  0  0
   21.7370   18.3392   22.7122 H   0  0  0  0  0  0  0  0  0  0  0  0
   20.1409   19.2556   23.8803 C   0  0  0  0  0  0  0  0  0  0  0  0
   19.5503   20.1821   23.8650 H   0  0  0  0  0  0  0  0  0  0  0  0
   19.4404   18.4261   23.7229 H   0  0  0  0  0  0  0  0  0  0  0  0
   20.8198   19.1010   25.2619 C   0  0  0  0  0  0  0  0  0  0  0  0
   21.5434   19.9145   25.4051 H   0  0  0  0  0  0  0  0  0  0  0  0
   21.3910   18.1637   25.2977 H   0  0  0  0  0  0  0  0  0  0  0  0
   19.8128   19.1349   26.4278 C   0  0  0  0  0  0  0  0  0  0  0  0
   20.3558   19.1090   27.3765 H   0  0  0  0  0  0  0  0  0  0  0  0
   19.2370   20.0636   26.3900 H   0  0  0  0  0  0  0  0  0  0  0  0
   18.8362   17.9751   26.4258 N   0  3  0  0  0  0  0  0  0  0  0  0
   18.2643   17.9616   25.5757 H   0  0  0  0  0  0  0  0  0  0  0  0
   18.1903   18.0203   27.2214 H   0  0  0  0  0  0  0  0  0  0  0  0
   19.3178   17.0719   26.4823 H   0  0  0  0  0  0  0  0  0  0  0  0
  1  2  1  0  0  0  0
  1  3  1  0  0  0  0
  1  4  1  0  0  0  0
  1  5  1  0  0  0  0
  5  6  1  0  0  0  0
  5  7  1  0  0  0  0
  5  8  1  0  0  0  0
  8  9  1  0  0  0  0
  8 10  1  0  0  0  0
  8 11  1  0  0  0  0
 11 12  1  0  0  0  0
 11 13  1  0  0  0  0
 11 14  1  0  0  0  0
 14 15  1  0  0  0  0
 14 16  1  0  0  0  0
 14 17  1  0  0  0  0
 17 18  1  0  0  0  0
 17 19  1  0  0  0  0
 17 20  1  0  0  0  0
 20 21  1  0  0  0  0
 20 22  1  0  0  0  0
 20 23  1  0  0  0  0
 23 24  1  0  0  0  0
 23 25  1  0  0  0  0
 23 26  1  0  0  0  0
M  END
> <VM2 Rank>
24

> <Conf_Id>
1038

> <Probability>
1.35

> <Sum Probability>
62.17

> <Delta G>
1.039

> <G>
49.301

> <E>
16.752

> <-TS>
32.549

> <U+W>
-4.710

> <U>
48.945

> <W>
-53.655

> <W(PB)>
-55.989

> <W(SA)>
2.334

> <Valence>
2.802

> <Coulomb>
45.335

> <VdW>
0.807

> <VdW6>
-6.962

> <VdW12>
7.769

> <Bond>
0.189

> <Angle>
0.696

> <Pdih>
1.917

> <Idih>
0.000

> <Tether>
0.000

$$$$
VeraChem MOL file


 26 25  0  0  0  0  0  0  0  0999 V2000     
   21.0498   20.0677   20.1773 C   0  0  0  0  0  0  0  0  0  0  0  0
   20.3766   20.9346   20.1945 H   0  0  0  0  0  0  0  0  0  0  0  0
   21.7158   20.1314   21.0466 H   0  0  0  0  0  0  0  0  0  0  0  0
   21.6739   20.1452   19.2777 H   0  0  0  0  0  0  0  0  0  0  0  0
   20.2515   18.7442   20.1690 C   0  0  0  0  0  0  0  0  0  0  0  0
   20.9466   17.8931   20.1836 H   0  0  0  0  0  0  0  0  0  0  0  0
   19.6968   18.6716   19.2230 H   0  0  0  0  0  0  0  0  0  0  0  0
   19.2494   18.6220   21.3423 C   0  0  0  0  0  0  0  0  0  0  0  0
   18.5440   19.4639   21.3114 H   0  0  0  0  0  0  0  0  0  0  0  0
   18.6511   17.7121   21.1957 H   0  0  0  0  0  0  0  0  0  0  0  0
   19.9297   18.5619   22.7310 C   0  0  0  0  0  0  0  0  0  0  0  0
   20.4770   19.4953   22.9124 H   0  0  0  0  0  0  0  0  0  0  0  0
   20.6694   17.7495   22.7412 H   0  0  0  0  0  0  0  0  0  0  0  0
   18.8993   18.3366   23.8636 C   0  0  0  0  0  0  0  0  0  0  0  0
   18.1749   19.1628   23.8753 H   0  0  0  0  0  0  0  0  0  0  0  0
   18.3254   17.4233   23.6540 H   0  0  0  0  0  0  0  0  0  0  0  0
   19.5510   18.2022   25.2600 C   0  0  0  0  0  0  0  0  0  0  0  0
   20.2583   17.3620   25.2578 H   0  0  0  0  0  0  0  0  0  0  0  0
   18.7724   17.9558   25.9942 H   0  0  0  0  0  0  0  0  0  0  0  0
   20.2742   19.4869   25.7059 C   0  0  0  0  0  0  0  0  0  0  0  0
   21.0821   19.7188   25.0072 H   0  0  0  0  0  0  0  0  0  0  0  0
   19.5701   20.3233   25.7086 H   0  0  0  0  0  0  0  0  0  0  0  0
   20.8761   19.3776   27.0919 N   0  3  0  0  0  0  0  0  0  0  0  0
   21.5686   18.6237   27.1495 H   0  0  0  0  0  0  0  0  0  0  0  0
   20.1634   19.1876   27.8041 H   0  0  0  0  0  0  0  0  0  0  0  0
   21.3525   20.2426   27.3699 H   0  0  0  0  0  0  0  0  0  0  0  0
  1  2  1  0  0  0  0
  1  3  1  0  0  0  0
  1  4  1  0  0  0  0
  1  5  1  0  0  0  0
  5  6  1  0  0  0  0
  5  7  1  0  0  0  0
  5  8  1  0  0  0  0
  8  9  1  0  0  0  0
  8 10  1  0  0  0  0
  8 11  1  0  0  0  0
 11 12  1  0  0  0  0
 11 13  1  0  0  0  0
 11 14  1  0  0  0  0
 14 15  1  0  0  0  0
 14 16  1  0  0  0  0
 14 17  1  0  0  0  0
 17 18  1  0  0  0  0
 17 19  1  0  0  0  0
 17 20  1  0  0  0  0
 20 21  1  0  0  0  0
 20 22  1  0  0  0  0
 20 23  1  0  0  0  0
 23 24  1  0  0  0  0
 23 25  1  0  0  0  0
 23 26  1  0  0  0  0
M  END
> <VM2 Rank>
25

> <Conf_Id>
136

> <Probability>
1.32

> <Sum Probability>
63.49

> <Delta G>
1.053

> <G>
49.314

> <E>
16.753

> <-TS>
32.561

> <U+W>
-4.708

> <U>
48.723

> <W>
-53.432

> <W(PB)>
-55.776

> <W(SA)>
2.344

> <Valence>
2.962

> <Coulomb>
44.993

> <VdW>
0.768

> <VdW6>
-7.008

> <VdW12>
7.776

> <Bond>
0.188

> <Angle>
0.756

> <Pdih>
2.018

> <Idih>
0.000

> <Tether>
0.000

$$$$
VeraChem MOL file


 26 25  0  0  0  0  0  0  0  0999 V2000     
   20.1285   17.8133   19.8416 C   0  0  0  0  0  0  0  0  0  0  0  0
   19.0726   17.9073   19.5568 H   0  0  0  0  0  0  0  0  0  0  0  0
   20.6775   17.4273   18.9730 H   0  0  0  0  0  0  0  0  0  0  0  0
   20.2046   17.0639   20.6391 H   0  0  0  0  0  0  0  0  0  0  0  0
   20.7078   19.1758   20.2855 C   0  0  0  0  0  0  0  0  0  0  0  0
   20.7216   19.8533   19.4203 H   0  0  0  0  0  0  0  0  0  0  0  0
   21.7551   19.0493   20.5935 H   0  0  0  0  0  0  0  0  0  0  0  0
   19.9034   19.8441   21.4266 C   0  0  0  0  0  0  0  0  0  0  0  0
   20.3155   20.8474   21.6024 H   0  0  0  0  0  0  0  0  0  0  0  0
   18.8628   19.9893   21.1051 H   0  0  0  0  0  0  0  0  0  0  0  0
   19.9342   19.0461   22.7522 C   0  0  0  0  0  0  0  0  0  0  0  0
   20.9783   18.8554   23.0338 H   0  0  0  0  0  0  0  0  0  0  0  0
   19.4570   18.0676   22.6095 H   0  0  0  0  0  0  0  0  0  0  0  0
   19.2089   19.8019   23.8914 C   0  0  0  0  0  0  0  0  0  0  0  0
   19.7032   20.7669   24.0702 H   0  0  0  0  0  0  0  0  0  0  0  0
   18.1822   20.0326   23.5749 H   0  0  0  0  0  0  0  0  0  0  0  0
   19.1522   18.9995   25.2126 C   0  0  0  0  0  0  0  0  0  0  0  0
   18.6345   18.0459   25.0434 H   0  0  0  0  0  0  0  0  0  0  0  0
   18.5518   19.5579   25.9431 H   0  0  0  0  0  0  0  0  0  0  0  0
   20.5478   18.7327   25.8070 C   0  0  0  0  0  0  0  0  0  0  0  0
   21.1412   18.1389   25.1070 H   0  0  0  0  0  0  0  0  0  0  0  0
   21.0630   19.6820   25.9766 H   0  0  0  0  0  0  0  0  0  0  0  0
   20.4982   17.9856   27.1241 N   0  3  0  0  0  0  0  0  0  0  0  0
   19.9765   18.5044   27.8382 H   0  0  0  0  0  0  0  0  0  0  0  0
   21.4367   17.8182   27.5029 H   0  0  0  0  0  0  0  0  0  0  0  0
   20.0477   17.0697   27.0272 H   0  0  0  0  0  0  0  0  0  0  0  0
  1  2  1  0  0  0  0
  1  3  1  0  0  0  0
  1  4  1  0  0  0  0
  1  5  1  0  0  0  0
  5  6  1  0  0  0  0
  5  7  1  0  0  0  0
  5  8  1  0  0  0  0
  8  9  1  0  0  0  0
  8 10  1  0  0  0  0
  8 11  1  0  0  0  0
 11 12  1  0  0  0  0
 11 13  1  0  0  0  0
 11 14  1  0  0  0  0
 14 15  1  0  0  0  0
 14 16  1  0  0  0  0
 14 17  1  0  0  0  0
 17 18  1  0  0  0  0
 17 19  1  0  0  0  0
 17 20  1  0  0  0  0
 20 21  1  0  0  0  0
 20 22  1  0  0  0  0
 20 23  1  0  0  0  0
 23 24  1  0  0  0  0
 23 25  1  0  0  0  0
 23 26  1  0  0  0  0
M  END
> <VM2 Rank>
26

> <Conf_Id>
1221

> <Probability>
1.26

> <Sum Probability>
64.75

> <Delta G>
1.080

> <G>
49.341

> <E>
16.778

> <-TS>
32.563

> <U+W>
-4.684

> <U>
48.658

> <W>
-53.342

> <W(PB)>
-55.670

> <W(SA)>
2.328

> <Valence>
2.963

> <Coulomb>
44.927

> <VdW>
0.768

> <VdW6>
-6.995

> <VdW12>
7.762

> <Bond>
0.186

> <Angle>
0.758

> <Pdih>
2.019

> <Idih>
0.000

> <Tether>
0.000

$$$$
VeraChem MOL file


 26 25  0  0  0  0  0  0  0  0999 V2000     
   18.8534   18.5883   19.7368 C   0  0  0  0  0  0  0  0  0  0  0  0
   18.7032   19.6368   19.4480 H   0  0  0  0  0  0  0  0  0  0  0  0
   18.9599   17.9976   18.8177 H   0  0  0  0  0  0  0  0  0  0  0  0
   17.9496   18.2437   20.2560 H   0  0  0  0  0  0  0  0  0  0  0  0
   20.1010   18.4329   20.6320 C   0  0  0  0  0  0  0  0  0  0  0  0
   20.9921   18.7524   20.0737 H   0  0  0  0  0  0  0  0  0  0  0  0
   20.2441   17.3711   20.8769 H   0  0  0  0  0  0  0  0  0  0  0  0
   19.9772   19.2558   21.9334 C   0  0  0  0  0  0  0  0  0  0  0  0
   19.8370   20.3167   21.6841 H   0  0  0  0  0  0  0  0  0  0  0  0
   19.0790   18.9334   22.4763 H   0  0  0  0  0  0  0  0  0  0  0  0
   21.2251   19.0966   22.8347 C   0  0  0  0  0  0  0  0  0  0  0  0
   22.1213   19.3520   22.2525 H   0  0  0  0  0  0  0  0  0  0  0  0
   21.3421   18.0432   23.1227 H   0  0  0  0  0  0  0  0  0  0  0  0
   21.1946   19.9922   24.1002 C   0  0  0  0  0  0  0  0  0  0  0  0
   22.1315   19.8480   24.6561 H   0  0  0  0  0  0  0  0  0  0  0  0
   21.1846   21.0475   23.7944 H   0  0  0  0  0  0  0  0  0  0  0  0
   20.0018   19.7340   25.0542 C   0  0  0  0  0  0  0  0  0  0  0  0
   19.0597   20.0044   24.5605 H   0  0  0  0  0  0  0  0  0  0  0  0
   20.0943   20.3982   25.9238 H   0  0  0  0  0  0  0  0  0  0  0  0
   19.9330   18.2745   25.5407 C   0  0  0  0  0  0  0  0  0  0  0  0
   19.7991   17.6066   24.6857 H   0  0  0  0  0  0  0  0  0  0  0  0
   20.8677   18.0095   26.0422 H   0  0  0  0  0  0  0  0  0  0  0  0
   18.7948   18.0247   26.5089 N   0  3  0  0  0  0  0  0  0  0  0  0
   17.8829   18.2302   26.0880 H   0  0  0  0  0  0  0  0  0  0  0  0
   18.8760   18.6037   27.3511 H   0  0  0  0  0  0  0  0  0  0  0  0
   18.7670   17.0477   26.8202 H   0  0  0  0  0  0  0  0  0  0  0  0
  1  2  1  0  0  0  0
  1  3  1  0  0  0  0
  1  4  1  0  0  0  0
  1  5  1  0  0  0  0
  5  6  1  0  0  0  0
  5  7  1  0  0  0  0
  5  8  1  0  0  0  0
  8  9  1  0  0  0  0
  8 10  1  0  0  0  0
  8 11  1  0  0  0  0
 11 12  1  0  0  0  0
 11 13  1  0  0  0  0
 11 14  1  0  0  0  0
 14 15  1  0  0  0  0
 14 16  1  0  0  0  0
 14 17  1  0  0  0  0
 17 18  1  0  0  0  0
 17 19  1  0  0  0  0
 17 20  1  0  0  0  0
 20 21  1  0  0  0  0
 20 22  1  0  0  0  0
 20 23  1  0  0  0  0
 23 24  1  0  0  0  0
 23 25  1  0  0  0  0
 23 26  1  0  0  0  0
M  END
> <VM2 Rank>
27

> <Conf_Id>
1178

> <Probability>
1.24

> <Sum Probability>
65.99

> <Delta G>
1.087

> <G>
49.349

> <E>
16.659

> <-TS>
32.690

> <U+W>
-4.803

> <U>
48.957

> <W>
-53.760

> <W(PB)>
-56.083

> <W(SA)>
2.323

> <Valence>
2.916

> <Coulomb>
45.446

> <VdW>
0.595

> <VdW6>
-7.362

> <VdW12>
7.957

> <Bond>
0.196

> <Angle>
0.889

> <Pdih>
1.830

> <Idih>
0.000

> <Tether>
0.000

$$$$
VeraChem MOL file


 26 25  0  0  0  0  0  0  0  0999 V2000     
   20.9390   19.9637   19.8065 C   0  0  0  0  0  0  0  0  0  0  0  0
   21.4825   19.6612   18.9020 H   0  0  0  0  0  0  0  0  0  0  0  0
   20.0484   20.5239   19.4930 H   0  0  0  0  0  0  0  0  0  0  0  0
   21.5863   20.6421   20.3775 H   0  0  0  0  0  0  0  0  0  0  0  0
   20.5501   18.7291   20.6471 C   0  0  0  0  0  0  0  0  0  0  0  0
   21.4578   18.1715   20.9175 H   0  0  0  0  0  0  0  0  0  0  0  0
   19.9327   18.0538   20.0383 H   0  0  0  0  0  0  0  0  0  0  0  0
   19.7824   19.1273   21.9270 C   0  0  0  0  0  0  0  0  0  0  0  0
   20.4061   19.8084   22.5207 H   0  0  0  0  0  0  0  0  0  0  0  0
   18.8748   19.6821   21.6520 H   0  0  0  0  0  0  0  0  0  0  0  0
   19.3966   17.8907   22.7736 C   0  0  0  0  0  0  0  0  0  0  0  0
   20.3046   17.3590   23.0880 H   0  0  0  0  0  0  0  0  0  0  0  0
   18.8370   17.1862   22.1428 H   0  0  0  0  0  0  0  0  0  0  0  0
   18.5270   18.2329   24.0111 C   0  0  0  0  0  0  0  0  0  0  0  0
   17.5760   18.6677   23.6738 H   0  0  0  0  0  0  0  0  0  0  0  0
   18.2656   17.2986   24.5269 H   0  0  0  0  0  0  0  0  0  0  0  0
   19.1883   19.1975   25.0270 C   0  0  0  0  0  0  0  0  0  0  0  0
   18.5015   19.3476   25.8706 H   0  0  0  0  0  0  0  0  0  0  0  0
   19.3328   20.1845   24.5696 H   0  0  0  0  0  0  0  0  0  0  0  0
   20.5332   18.6703   25.5607 C   0  0  0  0  0  0  0  0  0  0  0  0
   20.3863   17.6919   26.0260 H   0  0  0  0  0  0  0  0  0  0  0  0
   21.2390   18.5563   24.7337 H   0  0  0  0  0  0  0  0  0  0  0  0
   21.1645   19.5875   26.5880 N   0  3  0  0  0  0  0  0  0  0  0  0
   22.0584   19.2183   26.9300 H   0  0  0  0  0  0  0  0  0  0  0  0
   20.5617   19.7153   27.4074 H   0  0  0  0  0  0  0  0  0  0  0  0
   21.3534   20.5191   26.2040 H   0  0  0  0  0  0  0  0  0  0  0  0
  1  2  1  0  0  0  0
  1  3  1  0  0  0  0
  1  4  1  0  0  0  0
  1  5  1  0  0  0  0
  5  6  1  0  0  0  0
  5  7  1  0  0  0  0
  5  8  1  0  0  0  0
  8  9  1  0  0  0  0
  8 10  1  0  0  0  0
  8 11  1  0  0  0  0
 11 12  1  0  0  0  0
 11 13  1  0  0  0  0
 11 14  1  0  0  0  0
 14 15  1  0  0  0  0
 14 16  1  0  0  0  0
 14 17  1  0  0  0  0
 17 18  1  0  0  0  0
 17 19  1  0  0  0  0
 17 20  1  0  0  0  0
 20 21  1  0  0  0  0
 20 22  1  0  0  0  0
 20 23  1  0  0  0  0
 23 24  1  0  0  0  0
 23 25  1  0  0  0  0
 23 26  1  0  0  0  0
M  END
> <VM2 Rank>
28

> <Conf_Id>
155

> <Probability>
1.24

> <Sum Probability>
67.23

> <Delta G>
1.090

> <G>
49.351

> <E>
16.661

> <-TS>
32.690

> <U+W>
-4.801

> <U>
48.957

> <W>
-53.758

> <W(PB)>
-56.077

> <W(SA)>
2.319

> <Valence>
2.916

> <Coulomb>
45.446

> <VdW>
0.595

> <VdW6>
-7.362

> <VdW12>
7.957

> <Bond>
0.196

> <Angle>
0.889

> <Pdih>
1.830

> <Idih>
0.000

> <Tether>
0.000

$$$$
VeraChem MOL file


 26 25  0  0  0  0  0  0  0  0999 V2000     
   21.1445   18.4823   19.8757 C   0  0  0  0  0  0  0  0  0  0  0  0
   21.4876   19.4975   19.6377 H   0  0  0  0  0  0  0  0  0  0  0  0
   21.7653   18.0915   20.6914 H   0  0  0  0  0  0  0  0  0  0  0  0
   21.3232   17.8524   18.9947 H   0  0  0  0  0  0  0  0  0  0  0  0
   19.6450   18.4759   20.2500 C   0  0  0  0  0  0  0  0  0  0  0  0
   19.3340   17.4551   20.5126 H   0  0  0  0  0  0  0  0  0  0  0  0
   19.0580   18.7577   19.3647 H   0  0  0  0  0  0  0  0  0  0  0  0
   19.2952   19.4436   21.4062 C   0  0  0  0  0  0  0  0  0  0  0  0
   19.5868   20.4661   21.1292 H   0  0  0  0  0  0  0  0  0  0  0  0
   18.2037   19.4567   21.5317 H   0  0  0  0  0  0  0  0  0  0  0  0
   19.9538   19.0591   22.7528 C   0  0  0  0  0  0  0  0  0  0  0  0
   21.0466   19.1146   22.6627 H   0  0  0  0  0  0  0  0  0  0  0  0
   19.7045   18.0166   22.9912 H   0  0  0  0  0  0  0  0  0  0  0  0
   19.4925   19.9888   23.9009 C   0  0  0  0  0  0  0  0  0  0  0  0
   19.6997   21.0322   23.6256 H   0  0  0  0  0  0  0  0  0  0  0  0
   18.4037   19.9110   24.0268 H   0  0  0  0  0  0  0  0  0  0  0  0
   20.1900   19.6831   25.2472 C   0  0  0  0  0  0  0  0  0  0  0  0
   19.8798   20.4326   25.9875 H   0  0  0  0  0  0  0  0  0  0  0  0
   21.2772   19.7867   25.1316 H   0  0  0  0  0  0  0  0  0  0  0  0
   19.8578   18.2782   25.7840 C   0  0  0  0  0  0  0  0  0  0  0  0
   18.7756   18.1752   25.9002 H   0  0  0  0  0  0  0  0  0  0  0  0
   20.2020   17.5202   25.0756 H   0  0  0  0  0  0  0  0  0  0  0  0
   20.5020   17.9881   27.1242 N   0  3  0  0  0  0  0  0  0  0  0  0
   21.5247   18.0426   27.0765 H   0  0  0  0  0  0  0  0  0  0  0  0
   20.2685   17.0486   27.4638 H   0  0  0  0  0  0  0  0  0  0  0  0
   20.1978   18.6501   27.8456 H   0  0  0  0  0  0  0  0  0  0  0  0
  1  2  1  0  0  0  0
  1  3  1  0  0  0  0
  1  4  1  0  0  0  0
  1  5  1  0  0  0  0
  5  6  1  0  0  0  0
  5  7  1  0  0  0  0
  5  8  1  0  0  0  0
  8  9  1  0  0  0  0
  8 10  1  0  0  0  0
  8 11  1  0  0  0  0
 11 12  1  0  0  0  0
 11 13  1  0  0  0  0
 11 14  1  0  0  0  0
 14 15  1  0  0  0  0
 14 16  1  0  0  0  0
 14 17  1  0  0  0  0
 17 18  1  0  0  0  0
 17 19  1  0  0  0  0
 17 20  1  0  0  0  0
 20 21  1  0  0  0  0
 20 22  1  0  0  0  0
 20 23  1  0  0  0  0
 23 24  1  0  0  0  0
 23 25  1  0  0  0  0
 23 26  1  0  0  0  0
M  END
> <VM2 Rank>
29

> <Conf_Id>
1365

> <Probability>
1.20

> <Sum Probability>
68.43

> <Delta G>
1.110

> <G>
49.372

> <E>
16.809

> <-TS>
32.563

> <U+W>
-4.653

> <U>
48.658

> <W>
-53.311

> <W(PB)>
-55.637

> <W(SA)>
2.326

> <Valence>
2.963

> <Coulomb>
44.927

> <VdW>
0.768

> <VdW6>
-6.995

> <VdW12>
7.762

> <Bond>
0.186

> <Angle>
0.758

> <Pdih>
2.019

> <Idih>
0.000

> <Tether>
0.000

$$$$
VeraChem MOL file


 26 25  0  0  0  0  0  0  0  0999 V2000     
   18.6973   18.5159   20.0987 C   0  0  0  0  0  0  0  0  0  0  0  0
   18.1643   19.4754   20.1208 H   0  0  0  0  0  0  0  0  0  0  0  0
   18.4229   18.0009   19.1690 H   0  0  0  0  0  0  0  0  0  0  0  0
   18.3368   17.9025   20.9337 H   0  0  0  0  0  0  0  0  0  0  0  0
   20.2267   18.7279   20.1681 C   0  0  0  0  0  0  0  0  0  0  0  0
   20.5551   19.2379   19.2517 H   0  0  0  0  0  0  0  0  0  0  0  0
   20.7349   17.7536   20.1765 H   0  0  0  0  0  0  0  0  0  0  0  0
   20.6777   19.5642   21.3900 C   0  0  0  0  0  0  0  0  0  0  0  0
   21.7552   19.7596   21.2995 H   0  0  0  0  0  0  0  0  0  0  0  0
   20.1827   20.5449   21.3662 H   0  0  0  0  0  0  0  0  0  0  0  0
   20.4012   18.8729   22.7467 C   0  0  0  0  0  0  0  0  0  0  0  0
   20.8564   17.8729   22.7474 H   0  0  0  0  0  0  0  0  0  0  0  0
   19.3205   18.7327   22.8738 H   0  0  0  0  0  0  0  0  0  0  0  0
   20.9601   19.6957   23.9325 C   0  0  0  0  0  0  0  0  0  0  0  0
   22.0341   19.8691   23.7779 H   0  0  0  0  0  0  0  0  0  0  0  0
   20.4852   20.6865   23.9525 H   0  0  0  0  0  0  0  0  0  0  0  0
   20.7627   19.0012   25.3004 C   0  0  0  0  0  0  0  0  0  0  0  0
   21.2606   19.5966   26.0773 H   0  0  0  0  0  0  0  0  0  0  0  0
   21.2566   18.0204   25.2911 H   0  0  0  0  0  0  0  0  0  0  0  0
   19.2779   18.8298   25.6726 C   0  0  0  0  0  0  0  0  0  0  0  0
   18.7861   19.8062   25.6825 H   0  0  0  0  0  0  0  0  0  0  0  0
   18.7801   18.2007   24.9303 H   0  0  0  0  0  0  0  0  0  0  0  0
   19.0774   18.1914   27.0318 N   0  3  0  0  0  0  0  0  0  0  0  0
   18.0830   18.0864   27.2607 H   0  0  0  0  0  0  0  0  0  0  0  0
   19.4988   18.7492   27.7819 H   0  0  0  0  0  0  0  0  0  0  0  0
   19.4952   17.2563   27.0802 H   0  0  0  0  0  0  0  0  0  0  0  0
  1  2  1  0  0  0  0
  1  3  1  0  0  0  0
  1  4  1  0  0  0  0
  1  5  1  0  0  0  0
  5  6  1  0  0  0  0
  5  7  1  0  0  0  0
  5  8  1  0  0  0  0
  8  9  1  0  0  0  0
  8 10  1  0  0  0  0
  8 11  1  0  0  0  0
 11 12  1  0  0  0  0
 11 13  1  0  0  0  0
 11 14  1  0  0  0  0
 14 15  1  0  0  0  0
 14 16  1  0  0  0  0
 14 17  1  0  0  0  0
 17 18  1  0  0  0  0
 17 19  1  0  0  0  0
 17 20  1  0  0  0  0
 20 21  1  0  0  0  0
 20 22  1  0  0  0  0
 20 23  1  0  0  0  0
 23 24  1  0  0  0  0
 23 25  1  0  0  0  0
 23 26  1  0  0  0  0
M  END
> <VM2 Rank>
30

> <Conf_Id>
964

> <Probability>
1.18

> <Sum Probability>
69.61

> <Delta G>
1.120

> <G>
49.382

> <E>
16.822

> <-TS>
32.560

> <U+W>
-4.640

> <U>
48.723

> <W>
-53.363

> <W(PB)>
-55.683

> <W(SA)>
2.320

> <Valence>
2.962

> <Coulomb>
44.993

> <VdW>
0.768

> <VdW6>
-7.008

> <VdW12>
7.776

> <Bond>
0.188

> <Angle>
0.756

> <Pdih>
2.018

> <Idih>
0.000

> <Tether>
0.000

$$$$
VeraChem MOL file


 26 25  0  0  0  0  0  0  0  0999 V2000     
   19.4884   19.0300   19.2182 C   0  0  0  0  0  0  0  0  0  0  0  0
   19.9384   18.1257   18.7881 H   0  0  0  0  0  0  0  0  0  0  0  0
   18.4891   19.1499   18.7799 H   0  0  0  0  0  0  0  0  0  0  0  0
   20.0958   19.8923   18.9136 H   0  0  0  0  0  0  0  0  0  0  0  0
   19.4005   18.9293   20.7559 C   0  0  0  0  0  0  0  0  0  0  0  0
   18.7636   18.0765   21.0291 H   0  0  0  0  0  0  0  0  0  0  0  0
   18.9094   19.8313   21.1443 H   0  0  0  0  0  0  0  0  0  0  0  0
   20.7986   18.7639   21.3971 C   0  0  0  0  0  0  0  0  0  0  0  0
   21.3020   17.9017   20.9385 H   0  0  0  0  0  0  0  0  0  0  0  0
   21.4184   19.6412   21.1657 H   0  0  0  0  0  0  0  0  0  0  0  0
   20.7548   18.5484   22.9298 C   0  0  0  0  0  0  0  0  0  0  0  0
   21.7734   18.3297   23.2790 H   0  0  0  0  0  0  0  0  0  0  0  0
   20.1534   17.6568   23.1522 H   0  0  0  0  0  0  0  0  0  0  0  0
   20.2058   19.7704   23.7089 C   0  0  0  0  0  0  0  0  0  0  0  0
   20.7515   20.6722   23.3988 H   0  0  0  0  0  0  0  0  0  0  0  0
   19.1515   19.9395   23.4531 H   0  0  0  0  0  0  0  0  0  0  0  0
   20.3338   19.6154   25.2425 C   0  0  0  0  0  0  0  0  0  0  0  0
   20.0005   20.5443   25.7240 H   0  0  0  0  0  0  0  0  0  0  0  0
   21.3897   19.4822   25.5134 H   0  0  0  0  0  0  0  0  0  0  0  0
   19.5060   18.4381   25.7911 C   0  0  0  0  0  0  0  0  0  0  0  0
   18.4543   18.5720   25.5241 H   0  0  0  0  0  0  0  0  0  0  0  0
   19.8570   17.5017   25.3498 H   0  0  0  0  0  0  0  0  0  0  0  0
   19.5930   18.3034   27.2976 N   0  3  0  0  0  0  0  0  0  0  0  0
   19.2505   19.1427   27.7766 H   0  0  0  0  0  0  0  0  0  0  0  0
   20.5563   18.1482   27.6124 H   0  0  0  0  0  0  0  0  0  0  0  0
   19.0353   17.5145   27.6425 H   0  0  0  0  0  0  0  0  0  0  0  0
  1  2  1  0  0  0  0
  1  3  1  0  0  0  0
  1  4  1  0  0  0  0
  1  5  1  0  0  0  0
  5  6  1  0  0  0  0
  5  7  1  0  0  0  0
  5  8  1  0  0  0  0
  8  9  1  0  0  0  0
  8 10  1  0  0  0  0
  8 11  1  0  0  0  0
 11 12  1  0  0  0  0
 11 13  1  0  0  0  0
 11 14  1  0  0  0  0
 14 15  1  0  0  0  0
 14 16  1  0  0  0  0
 14 17  1  0  0  0  0
 17 18  1  0  0  0  0
 17 19  1  0  0  0  0
 17 20  1  0  0  0  0
 20 21  1  0  0  0  0
 20 22  1  0  0  0  0
 20 23  1  0  0  0  0
 23 24  1  0  0  0  0
 23 25  1  0  0  0  0
 23 26  1  0  0  0  0
M  END
> <VM2 Rank>
31

> <Conf_Id>
779

> <Probability>
1.16

> <Sum Probability>
70.76

> <Delta G>
1.130

> <G>
49.391

> <E>
16.830

> <-TS>
32.561

> <U+W>
-4.632

> <U>
48.732

> <W>
-53.364

> <W(PB)>
-55.694

> <W(SA)>
2.329

> <Valence>
2.986

> <Coulomb>
45.003

> <VdW>
0.742

> <VdW6>
-7.035

> <VdW12>
7.778

> <Bond>
0.190

> <Angle>
0.753

> <Pdih>
2.043

> <Idih>
0.000

> <Tether>
0.000

$$$$
VeraChem MOL file


 26 25  0  0  0  0  0  0  0  0999 V2000     
   19.8610   19.0879   19.0805 C   0  0  0  0  0  0  0  0  0  0  0  0
   18.9960   19.7607   19.0149 H   0  0  0  0  0  0  0  0  0  0  0  0
   20.7483   19.6374   18.7400 H   0  0  0  0  0  0  0  0  0  0  0  0
   19.6936   18.2550   18.3852 H   0  0  0  0  0  0  0  0  0  0  0  0
   20.0494   18.5661   20.5208 C   0  0  0  0  0  0  0  0  0  0  0  0
   20.9027   17.8742   20.5485 H   0  0  0  0  0  0  0  0  0  0  0  0
   19.1610   17.9885   20.8083 H   0  0  0  0  0  0  0  0  0  0  0  0
   20.2825   19.7237   21.5203 C   0  0  0  0  0  0  0  0  0  0  0  0
   21.1237   20.3354   21.1658 H   0  0  0  0  0  0  0  0  0  0  0  0
   19.4052   20.3851   21.5329 H   0  0  0  0  0  0  0  0  0  0  0  0
   20.5960   19.2491   22.9607 C   0  0  0  0  0  0  0  0  0  0  0  0
   20.8793   20.1285   23.5539 H   0  0  0  0  0  0  0  0  0  0  0  0
   21.4752   18.5902   22.9467 H   0  0  0  0  0  0  0  0  0  0  0  0
   19.4095   18.5240   23.6455 C   0  0  0  0  0  0  0  0  0  0  0  0
   18.5234   19.1737   23.6387 H   0  0  0  0  0  0  0  0  0  0  0  0
   19.1432   17.6275   23.0710 H   0  0  0  0  0  0  0  0  0  0  0  0
   19.7201   18.0914   25.0980 C   0  0  0  0  0  0  0  0  0  0  0  0
   20.6006   17.4353   25.1075 H   0  0  0  0  0  0  0  0  0  0  0  0
   18.8800   17.4954   25.4786 H   0  0  0  0  0  0  0  0  0  0  0  0
   19.9538   19.2870   26.0406 C   0  0  0  0  0  0  0  0  0  0  0  0
   20.8179   19.8637   25.7012 H   0  0  0  0  0  0  0  0  0  0  0  0
   19.0774   19.9406   26.0301 H   0  0  0  0  0  0  0  0  0  0  0  0
   20.2088   18.8698   27.4746 N   0  3  0  0  0  0  0  0  0  0  0  0
   21.0382   18.2728   27.5572 H   0  0  0  0  0  0  0  0  0  0  0  0
   19.4194   18.3456   27.8662 H   0  0  0  0  0  0  0  0  0  0  0  0
   20.3616   19.6796   28.0856 H   0  0  0  0  0  0  0  0  0  0  0  0
  1  2  1  0  0  0  0
  1  3  1  0  0  0  0
  1  4  1  0  0  0  0
  1  5  1  0  0  0  0
  5  6  1  0  0  0  0
  5  7  1  0  0  0  0
  5  8  1  0  0  0  0
  8  9  1  0  0  0  0
  8 10  1  0  0  0  0
  8 11  1  0  0  0  0
 11 12  1  0  0  0  0
 11 13  1  0  0  0  0
 11 14  1  0  0  0  0
 14 15  1  0  0  0  0
 14 16  1  0  0  0  0
 14 17  1  0  0  0  0
 17 18  1  0  0  0  0
 17 19  1  0  0  0  0
 17 20  1  0  0  0  0
 20 21  1  0  0  0  0
 20 22  1  0  0  0  0
 20 23  1  0  0  0  0
 23 24  1  0  0  0  0
 23 25  1  0  0  0  0
 23 26  1  0  0  0  0
M  END
> <VM2 Rank>
32

> <Conf_Id>
725

> <Probability>
1.13

> <Sum Probability>
71.89

> <Delta G>
1.147

> <G>
49.408

> <E>
16.887

> <-TS>
32.521

> <U+W>
-4.575

> <U>
48.768

> <W>
-53.342

> <W(PB)>
-55.671

> <W(SA)>
2.328

> <Valence>
3.051

> <Coulomb>
44.907

> <VdW>
0.810

> <VdW6>
-6.972

> <VdW12>
7.782

> <Bond>
0.197

> <Angle>
0.815

> <Pdih>
2.039

> <Idih>
0.000

> <Tether>
0.000

$$$$
VeraChem MOL file


 26 25  0  0  0  0  0  0  0  0999 V2000     
   20.3084   19.5705   19.2457 C   0  0  0  0  0  0  0  0  0  0  0  0
   20.9811   18.8130   18.8228 H   0  0  0  0  0  0  0  0  0  0  0  0
   19.2917   19.3635   18.8870 H   0  0  0  0  0  0  0  0  0  0  0  0
   20.6124   20.5487   18.8509 H   0  0  0  0  0  0  0  0  0  0  0  0
   20.3643   19.5640   20.7881 C   0  0  0  0  0  0  0  0  0  0  0  0
   19.7118   20.3597   21.1714 H   0  0  0  0  0  0  0  0  0  0  0  0
   21.3854   19.8030   21.1165 H   0  0  0  0  0  0  0  0  0  0  0  0
   19.9356   18.1955   21.3683 C   0  0  0  0  0  0  0  0  0  0  0  0
   18.8970   17.9805   21.0815 H   0  0  0  0  0  0  0  0  0  0  0  0
   20.5503   17.4065   20.9132 H   0  0  0  0  0  0  0  0  0  0  0  0
   20.0794   18.1034   22.9072 C   0  0  0  0  0  0  0  0  0  0  0  0
   21.1244   18.2965   23.1845 H   0  0  0  0  0  0  0  0  0  0  0  0
   19.8632   17.0710   23.2150 H   0  0  0  0  0  0  0  0  0  0  0  0
   19.1373   19.0663   23.6733 C   0  0  0  0  0  0  0  0  0  0  0  0
   19.4087   20.1090   23.4617 H   0  0  0  0  0  0  0  0  0  0  0  0
   18.1090   18.9309   23.3107 H   0  0  0  0  0  0  0  0  0  0  0  0
   19.1581   18.8404   25.2032 C   0  0  0  0  0  0  0  0  0  0  0  0
   18.8526   17.8100   25.4288 H   0  0  0  0  0  0  0  0  0  0  0  0
   18.4138   19.4984   25.6712 H   0  0  0  0  0  0  0  0  0  0  0  0
   20.5391   19.1190   25.8255 C   0  0  0  0  0  0  0  0  0  0  0  0
   21.2816   18.4406   25.3973 H   0  0  0  0  0  0  0  0  0  0  0  0
   20.8421   20.1459   25.6038 H   0  0  0  0  0  0  0  0  0  0  0  0
   20.5587   18.9398   27.3298 N   0  3  0  0  0  0  0  0  0  0  0  0
   20.3078   17.9843   27.6040 H   0  0  0  0  0  0  0  0  0  0  0  0
   19.9003   19.5709   27.7983 H   0  0  0  0  0  0  0  0  0  0  0  0
   21.4864   19.1299   27.7242 H   0  0  0  0  0  0  0  0  0  0  0  0
  1  2  1  0  0  0  0
  1  3  1  0  0  0  0
  1  4  1  0  0  0  0
  1  5  1  0  0  0  0
  5  6  1  0  0  0  0
  5  7  1  0  0  0  0
  5  8  1  0  0  0  0
  8  9  1  0  0  0  0
  8 10  1  0  0  0  0
  8 11  1  0  0  0  0
 11 12  1  0  0  0  0
 11 13  1  0  0  0  0
 11 14  1  0  0  0  0
 14 15  1  0  0  0  0
 14 16  1  0  0  0  0
 14 17  1  0  0  0  0
 17 18  1  0  0  0  0
 17 19  1  0  0  0  0
 17 20  1  0  0  0  0
 20 21  1  0  0  0  0
 20 22  1  0  0  0  0
 20 23  1  0  0  0  0
 23 24  1  0  0  0  0
 23 25  1  0  0  0  0
 23 26  1  0  0  0  0
M  END
> <VM2 Rank>
33

> <Conf_Id>
799

> <Probability>
1.09

> <Sum Probability>
72.98

> <Delta G>
1.168

> <G>
49.429

> <E>
16.868

> <-TS>
32.561

> <U+W>
-4.594

> <U>
48.732

> <W>
-53.326

> <W(PB)>
-55.661

> <W(SA)>
2.334

> <Valence>
2.987

> <Coulomb>
45.003

> <VdW>
0.742

> <VdW6>
-7.035

> <VdW12>
7.777

> <Bond>
0.191

> <Angle>
0.753

> <Pdih>
2.043

> <Idih>
0.000

> <Tether>
0.000

$$$$
VeraChem MOL file


 26 25  0  0  0  0  0  0  0  0999 V2000     
   18.7882   18.6801   20.1777 C   0  0  0  0  0  0  0  0  0  0  0  0
   18.3569   18.2458   21.0882 H   0  0  0  0  0  0  0  0  0  0  0  0
   17.9746   19.1712   19.6284 H   0  0  0  0  0  0  0  0  0  0  0  0
   19.1696   17.8620   19.5531 H   0  0  0  0  0  0  0  0  0  0  0  0
   19.9068   19.6936   20.5091 C   0  0  0  0  0  0  0  0  0  0  0  0
   19.5069   20.4906   21.1502 H   0  0  0  0  0  0  0  0  0  0  0  0
   20.2234   20.1871   19.5796 H   0  0  0  0  0  0  0  0  0  0  0  0
   21.1496   19.0457   21.1711 C   0  0  0  0  0  0  0  0  0  0  0  0
   21.6032   18.3413   20.4603 H   0  0  0  0  0  0  0  0  0  0  0  0
   21.9045   19.8249   21.3447 H   0  0  0  0  0  0  0  0  0  0  0  0
   20.8785   18.3009   22.5038 C   0  0  0  0  0  0  0  0  0  0  0  0
   21.8264   17.8736   22.8590 H   0  0  0  0  0  0  0  0  0  0  0  0
   20.2108   17.4474   22.3266 H   0  0  0  0  0  0  0  0  0  0  0  0
   20.2884   19.2074   23.6106 C   0  0  0  0  0  0  0  0  0  0  0  0
   20.9367   20.0831   23.7530 H   0  0  0  0  0  0  0  0  0  0  0  0
   19.3050   19.5847   23.3002 H   0  0  0  0  0  0  0  0  0  0  0  0
   20.1387   18.4537   24.9504 C   0  0  0  0  0  0  0  0  0  0  0  0
   21.1187   18.0807   25.2770 H   0  0  0  0  0  0  0  0  0  0  0  0
   19.4903   17.5783   24.8114 H   0  0  0  0  0  0  0  0  0  0  0  0
   19.5468   19.3608   26.0434 C   0  0  0  0  0  0  0  0  0  0  0  0
   20.1978   20.2258   26.1964 H   0  0  0  0  0  0  0  0  0  0  0  0
   18.5634   19.7214   25.7299 H   0  0  0  0  0  0  0  0  0  0  0  0
   19.3840   18.6568   27.3750 N   0  3  0  0  0  0  0  0  0  0  0  0
   20.2799   18.3163   27.7393 H   0  0  0  0  0  0  0  0  0  0  0  0
   18.7591   17.8469   27.3053 H   0  0  0  0  0  0  0  0  0  0  0  0
   18.9885   19.2785   28.0888 H   0  0  0  0  0  0  0  0  0  0  0  0
  1  2  1  0  0  0  0
  1  3  1  0  0  0  0
  1  4  1  0  0  0  0
  1  5  1  0  0  0  0
  5  6  1  0  0  0  0
  5  7  1  0  0  0  0
  5  8  1  0  0  0  0
  8  9  1  0  0  0  0
  8 10  1  0  0  0  0
  8 11  1  0  0  0  0
 11 12  1  0  0  0  0
 11 13  1  0  0  0  0
 11 14  1  0  0  0  0
 14 15  1  0  0  0  0
 14 16  1  0  0  0  0
 14 17  1  0  0  0  0
 17 18  1  0  0  0  0
 17 19  1  0  0  0  0
 17 20  1  0  0  0  0
 20 21  1  0  0  0  0
 20 22  1  0  0  0  0
 20 23  1  0  0  0  0
 23 24  1  0  0  0  0
 23 25  1  0  0  0  0
 23 26  1  0  0  0  0
M  END
> <VM2 Rank>
34

> <Conf_Id>
220

> <Probability>
1.04

> <Sum Probability>
74.02

> <Delta G>
1.196

> <G>
49.458

> <E>
16.676

> <-TS>
32.782

> <U+W>
-4.786

> <U>
48.494

> <W>
-53.279

> <W(PB)>
-55.569

> <W(SA)>
2.290

> <Valence>
3.117

> <Coulomb>
44.693

> <VdW>
0.684

> <VdW6>
-7.347

> <VdW12>
8.030

> <Bond>
0.208

> <Angle>
1.039

> <Pdih>
1.870

> <Idih>
0.000

> <Tether>
0.000

$$$$
VeraChem MOL file


 26 25  0  0  0  0  0  0  0  0999 V2000     
   20.8592   20.0467   20.2467 C   0  0  0  0  0  0  0  0  0  0  0  0
   21.3851   20.2439   21.1891 H   0  0  0  0  0  0  0  0  0  0  0  0
   21.4901   19.3933   19.6302 H   0  0  0  0  0  0  0  0  0  0  0  0
   20.7526   21.0044   19.7211 H   0  0  0  0  0  0  0  0  0  0  0  0
   19.4739   19.4080   20.4946 C   0  0  0  0  0  0  0  0  0  0  0  0
   18.9395   19.3400   19.5368 H   0  0  0  0  0  0  0  0  0  0  0  0
   18.8689   20.0695   21.1290 H   0  0  0  0  0  0  0  0  0  0  0  0
   19.5510   17.9908   21.1177 C   0  0  0  0  0  0  0  0  0  0  0  0
   18.5310   17.5987   21.2320 H   0  0  0  0  0  0  0  0  0  0  0  0
   20.0533   17.3186   20.4085 H   0  0  0  0  0  0  0  0  0  0  0  0
   20.2795   17.9057   22.4838 C   0  0  0  0  0  0  0  0  0  0  0  0
   21.3338   18.1886   22.3642 H   0  0  0  0  0  0  0  0  0  0  0  0
   20.2839   16.8557   22.8074 H   0  0  0  0  0  0  0  0  0  0  0  0
   19.6266   18.7707   23.5885 C   0  0  0  0  0  0  0  0  0  0  0  0
   19.6802   19.8323   23.3128 H   0  0  0  0  0  0  0  0  0  0  0  0
   18.5612   18.5155   23.6736 H   0  0  0  0  0  0  0  0  0  0  0  0
   20.3154   18.5703   24.9563 C   0  0  0  0  0  0  0  0  0  0  0  0
   21.3804   18.8256   24.8747 H   0  0  0  0  0  0  0  0  0  0  0  0
   20.2585   17.5131   25.2483 H   0  0  0  0  0  0  0  0  0  0  0  0
   19.6633   19.4377   26.0473 C   0  0  0  0  0  0  0  0  0  0  0  0
   19.7323   20.4928   25.7690 H   0  0  0  0  0  0  0  0  0  0  0  0
   18.6062   19.1755   26.1432 H   0  0  0  0  0  0  0  0  0  0  0  0
   20.3120   19.2692   27.4061 N   0  3  0  0  0  0  0  0  0  0  0  0
   20.2565   18.3009   27.7386 H   0  0  0  0  0  0  0  0  0  0  0  0
   19.8627   19.8554   28.1181 H   0  0  0  0  0  0  0  0  0  0  0  0
   21.3044   19.5265   27.3905 H   0  0  0  0  0  0  0  0  0  0  0  0
  1  2  1  0  0  0  0
  1  3  1  0  0  0  0
  1  4  1  0  0  0  0
  1  5  1  0  0  0  0
  5  6  1  0  0  0  0
  5  7  1  0  0  0  0
  5  8  1  0  0  0  0
  8  9  1  0  0  0  0
  8 10  1  0  0  0  0
  8 11  1  0  0  0  0
 11 12  1  0  0  0  0
 11 13  1  0  0  0  0
 11 14  1  0  0  0  0
 14 15  1  0  0  0  0
 14 16  1  0  0  0  0
 14 17  1  0  0  0  0
 17 18  1  0  0  0  0
 17 19  1  0  0  0  0
 17 20  1  0  0  0  0
 20 21  1  0  0  0  0
 20 22  1  0  0  0  0
 20 23  1  0  0  0  0
 23 24  1  0  0  0  0
 23 25  1  0  0  0  0
 23 26  1  0  0  0  0
M  END
> <VM2 Rank>
35

> <Conf_Id>
459

> <Probability>
0.98

> <Sum Probability>
74.99

> <Delta G>
1.232

> <G>
49.493

> <E>
16.712

> <-TS>
32.782

> <U+W>
-4.750

> <U>
48.494

> <W>
-53.243

> <W(PB)>
-55.524

> <W(SA)>
2.281

> <Valence>
3.117

> <Coulomb>
44.693

> <VdW>
0.684

> <VdW6>
-7.346

> <VdW12>
8.030

> <Bond>
0.208

> <Angle>
1.039

> <Pdih>
1.870

> <Idih>
0.000

> <Tether>
0.000

$$$$
VeraChem MOL file


 26 25  0  0  0  0  0  0  0  0999 V2000     
   19.7322   17.9498   19.7441 C   0  0  0  0  0  0  0  0  0  0  0  0
   20.0407   16.9911   20.1810 H   0  0  0  0  0  0  0  0  0  0  0  0
   18.6835   18.1285   20.0124 H   0  0  0  0  0  0  0  0  0  0  0  0
   19.7815   17.8524   18.6519 H   0  0  0  0  0  0  0  0  0  0  0  0
   20.6450   19.0998   20.2266 C   0  0  0  0  0  0  0  0  0  0  0  0
   20.3002   20.0505   19.7965 H   0  0  0  0  0  0  0  0  0  0  0  0
   21.6590   18.9356   19.8358 H   0  0  0  0  0  0  0  0  0  0  0  0
   20.7193   19.2184   21.7680 C   0  0  0  0  0  0  0  0  0  0  0  0
   21.0945   18.2735   22.1823 H   0  0  0  0  0  0  0  0  0  0  0  0
   21.4614   19.9872   22.0237 H   0  0  0  0  0  0  0  0  0  0  0  0
   19.3629   19.5858   22.4210 C   0  0  0  0  0  0  0  0  0  0  0  0
   18.6430   18.7689   22.2788 H   0  0  0  0  0  0  0  0  0  0  0  0
   18.9436   20.4616   21.9069 H   0  0  0  0  0  0  0  0  0  0  0  0
   19.4735   19.9090   23.9313 C   0  0  0  0  0  0  0  0  0  0  0  0
   20.1718   20.7445   24.0793 H   0  0  0  0  0  0  0  0  0  0  0  0
   18.4942   20.2597   24.2856 H   0  0  0  0  0  0  0  0  0  0  0  0
   19.9159   18.7013   24.7905 C   0  0  0  0  0  0  0  0  0  0  0  0
   20.9271   18.3848   24.5052 H   0  0  0  0  0  0  0  0  0  0  0  0
   19.2457   17.8512   24.6061 H   0  0  0  0  0  0  0  0  0  0  0  0
   19.9033   19.0464   26.2900 C   0  0  0  0  0  0  0  0  0  0  0  0
   20.5815   19.8824   26.4811 H   0  0  0  0  0  0  0  0  0  0  0  0
   18.8954   19.3455   26.5905 H   0  0  0  0  0  0  0  0  0  0  0  0
   20.3289   17.8885   27.1695 N   0  3  0  0  0  0  0  0  0  0  0  0
   20.3129   18.1397   28.1640 H   0  0  0  0  0  0  0  0  0  0  0  0
   21.2819   17.5764   26.9560 H   0  0  0  0  0  0  0  0  0  0  0  0
   19.7129   17.0766   27.0570 H   0  0  0  0  0  0  0  0  0  0  0  0
  1  2  1  0  0  0  0
  1  3  1  0  0  0  0
  1  4  1  0  0  0  0
  1  5  1  0  0  0  0
  5  6  1  0  0  0  0
  5  7  1  0  0  0  0
  5  8  1  0  0  0  0
  8  9  1  0  0  0  0
  8 10  1  0  0  0  0
  8 11  1  0  0  0  0
 11 12  1  0  0  0  0
 11 13  1  0  0  0  0
 11 14  1  0  0  0  0
 14 15  1  0  0  0  0
 14 16  1  0  0  0  0
 14 17  1  0  0  0  0
 17 18  1  0  0  0  0
 17 19  1  0  0  0  0
 17 20  1  0  0  0  0
 20 21  1  0  0  0  0
 20 22  1  0  0  0  0
 20 23  1  0  0  0  0
 23 24  1  0  0  0  0
 23 25  1  0  0  0  0
 23 26  1  0  0  0  0
M  END
> <VM2 Rank>
36

> <Conf_Id>
1046

> <Probability>
0.94

> <Sum Probability>
75.94

> <Delta G>
1.252

> <G>
49.513

> <E>
16.924

> <-TS>
32.590

> <U+W>
-4.538

> <U>
48.768

> <W>
-53.307

> <W(PB)>
-55.645

> <W(SA)>
2.338

> <Valence>
3.172

> <Coulomb>
44.790

> <VdW>
0.805

> <VdW6>
-7.080

> <VdW12>
7.886

> <Bond>
0.203

> <Angle>
0.850

> <Pdih>
2.120

> <Idih>
0.000

> <Tether>
0.000

$$$$
VeraChem MOL file


 26 25  0  0  0  0  0  0  0  0999 V2000     
   20.6683   20.2617   19.9906 C   0  0  0  0  0  0  0  0  0  0  0  0
   21.6250   20.5542   20.4426 H   0  0  0  0  0  0  0  0  0  0  0  0
   20.8807   19.6207   19.1251 H   0  0  0  0  0  0  0  0  0  0  0  0
   20.1768   21.1718   19.6230 H   0  0  0  0  0  0  0  0  0  0  0  0
   19.7713   19.5335   21.0140 C   0  0  0  0  0  0  0  0  0  0  0  0
   18.8115   19.2801   20.5427 H   0  0  0  0  0  0  0  0  0  0  0  0
   19.5487   20.2183   21.8431 H   0  0  0  0  0  0  0  0  0  0  0  0
   20.4450   18.2484   21.5502 C   0  0  0  0  0  0  0  0  0  0  0  0
   20.7269   17.6125   20.6997 H   0  0  0  0  0  0  0  0  0  0  0  0
   21.3844   18.5052   22.0573 H   0  0  0  0  0  0  0  0  0  0  0  0
   19.5386   17.4204   22.4976 C   0  0  0  0  0  0  0  0  0  0  0  0
   20.0812   16.5147   22.8017 H   0  0  0  0  0  0  0  0  0  0  0  0
   18.6624   17.0699   21.9348 H   0  0  0  0  0  0  0  0  0  0  0  0
   19.0493   18.1631   23.7680 C   0  0  0  0  0  0  0  0  0  0  0  0
   18.3998   19.0026   23.4863 H   0  0  0  0  0  0  0  0  0  0  0  0
   18.4178   17.4760   24.3482 H   0  0  0  0  0  0  0  0  0  0  0  0
   20.1985   18.6706   24.6701 C   0  0  0  0  0  0  0  0  0  0  0  0
   20.7955   19.4195   24.1345 H   0  0  0  0  0  0  0  0  0  0  0  0
   20.8693   17.8373   24.9180 H   0  0  0  0  0  0  0  0  0  0  0  0
   19.6575   19.2958   25.9678 C   0  0  0  0  0  0  0  0  0  0  0  0
   19.0014   20.1363   25.7258 H   0  0  0  0  0  0  0  0  0  0  0  0
   19.0755   18.5528   26.5197 H   0  0  0  0  0  0  0  0  0  0  0  0
   20.7524   19.8055   26.8827 N   0  3  0  0  0  0  0  0  0  0  0  0
   20.3703   20.2173   27.7411 H   0  0  0  0  0  0  0  0  0  0  0  0
   21.3211   20.5297   26.4318 H   0  0  0  0  0  0  0  0  0  0  0  0
   21.3901   19.0558   27.1698 H   0  0  0  0  0  0  0  0  0  0  0  0
  1  2  1  0  0  0  0
  1  3  1  0  0  0  0
  1  4  1  0  0  0  0
  1  5  1  0  0  0  0
  5  6  1  0  0  0  0
  5  7  1  0  0  0  0
  5  8  1  0  0  0  0
  8  9  1  0  0  0  0
  8 10  1  0  0  0  0
  8 11  1  0  0  0  0
 11 12  1  0  0  0  0
 11 13  1  0  0  0  0
 11 14  1  0  0  0  0
 14 15  1  0  0  0  0
 14 16  1  0  0  0  0
 14 17  1  0  0  0  0
 17 18  1  0  0  0  0
 17 19  1  0  0  0  0
 17 20  1  0  0  0  0
 20 21  1  0  0  0  0
 20 22  1  0  0  0  0
 20 23  1  0  0  0  0
 23 24  1  0  0  0  0
 23 25  1  0  0  0  0
 23 26  1  0  0  0  0
M  END
> <VM2 Rank>
37

> <Conf_Id>
811

> <Probability>
0.93

> <Sum Probability>
76.87

> <Delta G>
1.261

> <G>
49.523

> <E>
16.728

> <-TS>
32.795

> <U+W>
-4.734

> <U>
48.910

> <W>
-53.645

> <W(PB)>
-55.958

> <W(SA)>
2.314

> <Valence>
3.149

> <Coulomb>
45.131

> <VdW>
0.630

> <VdW6>
-7.453

> <VdW12>
8.083

> <Bond>
0.212

> <Angle>
1.075

> <Pdih>
1.862

> <Idih>
0.000

> <Tether>
0.000

$$$$
VeraChem MOL file


 26 25  0  0  0  0  0  0  0  0999 V2000     
   18.6775   18.9470   19.9241 C   0  0  0  0  0  0  0  0  0  0  0  0
   18.0131   18.1689   20.3220 H   0  0  0  0  0  0  0  0  0  0  0  0
   18.0506   19.7677   19.5520 H   0  0  0  0  0  0  0  0  0  0  0  0
   19.2236   18.5264   19.0697 H   0  0  0  0  0  0  0  0  0  0  0  0
   19.6503   19.4536   21.0100 C   0  0  0  0  0  0  0  0  0  0  0  0
   19.0697   19.9019   21.8272 H   0  0  0  0  0  0  0  0  0  0  0  0
   20.2809   20.2505   20.5918 H   0  0  0  0  0  0  0  0  0  0  0  0
   20.5426   18.3129   21.5534 C   0  0  0  0  0  0  0  0  0  0  0  0
   19.9152   17.5349   22.0081 H   0  0  0  0  0  0  0  0  0  0  0  0
   21.0562   17.8300   20.7107 H   0  0  0  0  0  0  0  0  0  0  0  0
   21.6144   18.7912   22.5670 C   0  0  0  0  0  0  0  0  0  0  0  0
   22.3057   19.4759   22.0566 H   0  0  0  0  0  0  0  0  0  0  0  0
   22.2200   17.9272   22.8732 H   0  0  0  0  0  0  0  0  0  0  0  0
   21.0643   19.4937   23.8353 C   0  0  0  0  0  0  0  0  0  0  0  0
   21.9160   19.7862   24.4651 H   0  0  0  0  0  0  0  0  0  0  0  0
   20.5602   20.4293   23.5585 H   0  0  0  0  0  0  0  0  0  0  0  0
   20.1060   18.6094   24.6670 C   0  0  0  0  0  0  0  0  0  0  0  0
   20.5977   17.6578   24.9090 H   0  0  0  0  0  0  0  0  0  0  0  0
   19.2089   18.3716   24.0814 H   0  0  0  0  0  0  0  0  0  0  0  0
   19.6828   19.3125   25.9687 C   0  0  0  0  0  0  0  0  0  0  0  0
   20.5678   19.5383   26.5697 H   0  0  0  0  0  0  0  0  0  0  0  0
   19.1787   20.2533   25.7317 H   0  0  0  0  0  0  0  0  0  0  0  0
   18.7431   18.4786   26.8154 N   0  3  0  0  0  0  0  0  0  0  0  0
   18.4744   18.9652   27.6777 H   0  0  0  0  0  0  0  0  0  0  0  0
   19.1689   17.5889   27.0954 H   0  0  0  0  0  0  0  0  0  0  0  0
   17.8758   18.2547   26.3165 H   0  0  0  0  0  0  0  0  0  0  0  0
  1  2  1  0  0  0  0
  1  3  1  0  0  0  0
  1  4  1  0  0  0  0
  1  5  1  0  0  0  0
  5  6  1  0  0  0  0
  5  7  1  0  0  0  0
  5  8  1  0  0  0  0
  8  9  1  0  0  0  0
  8 10  1  0  0  0  0
  8 11  1  0  0  0  0
 11 12  1  0  0  0  0
 11 13  1  0  0  0  0
 11 14  1  0  0  0  0
 14 15  1  0  0  0  0
 14 16  1  0  0  0  0
 14 17  1  0  0  0  0
 17 18  1  0  0  0  0
 17 19  1  0  0  0  0
 17 20  1  0  0  0  0
 20 21  1  0  0  0  0
 20 22  1  0  0  0  0
 20 23  1  0  0  0  0
 23 24  1  0  0  0  0
 23 25  1  0  0  0  0
 23 26  1  0  0  0  0
M  END
> <VM2 Rank>
38

> <Conf_Id>
1352

> <Probability>
0.89

> <Sum Probability>
77.76

> <Delta G>
1.288

> <G>
49.549

> <E>
16.754

> <-TS>
32.795

> <U+W>
-4.708

> <U>
48.910

> <W>
-53.618

> <W(PB)>
-55.929

> <W(SA)>
2.311

> <Valence>
3.149

> <Coulomb>
45.131

> <VdW>
0.630

> <VdW6>
-7.453

> <VdW12>
8.083

> <Bond>
0.212

> <Angle>
1.075

> <Pdih>
1.862

> <Idih>
0.000

> <Tether>
0.000

$$$$
VeraChem MOL file


 26 25  0  0  0  0  0  0  0  0999 V2000     
   19.8456   19.2213   19.3278 C   0  0  0  0  0  0  0  0  0  0  0  0
   19.9450   20.3145   19.3366 H   0  0  0  0  0  0  0  0  0  0  0  0
   20.0726   18.8721   18.3121 H   0  0  0  0  0  0  0  0  0  0  0  0
   18.7986   18.9689   19.5356 H   0  0  0  0  0  0  0  0  0  0  0  0
   20.8030   18.5677   20.3502 C   0  0  0  0  0  0  0  0  0  0  0  0
   21.8381   18.7423   20.0249 H   0  0  0  0  0  0  0  0  0  0  0  0
   20.6600   17.4780   20.3473 H   0  0  0  0  0  0  0  0  0  0  0  0
   20.6377   19.1140   21.7892 C   0  0  0  0  0  0  0  0  0  0  0  0
   21.4434   18.6942   22.4049 H   0  0  0  0  0  0  0  0  0  0  0  0
   20.7839   20.2028   21.7868 H   0  0  0  0  0  0  0  0  0  0  0  0
   19.2663   18.7712   22.4253 C   0  0  0  0  0  0  0  0  0  0  0  0
   19.1212   17.6822   22.4301 H   0  0  0  0  0  0  0  0  0  0  0  0
   18.4624   19.1873   21.8047 H   0  0  0  0  0  0  0  0  0  0  0  0
   19.0946   19.3239   23.8619 C   0  0  0  0  0  0  0  0  0  0  0  0
   19.2408   20.4130   23.8577 H   0  0  0  0  0  0  0  0  0  0  0  0
   18.0556   19.1541   24.1772 H   0  0  0  0  0  0  0  0  0  0  0  0
   20.0429   18.6734   24.8966 C   0  0  0  0  0  0  0  0  0  0  0  0
   21.0872   18.9040   24.6516 H   0  0  0  0  0  0  0  0  0  0  0  0
   19.9349   17.5811   24.8619 H   0  0  0  0  0  0  0  0  0  0  0  0
   19.7426   19.1713   26.3213 C   0  0  0  0  0  0  0  0  0  0  0  0
   19.8645   20.2570   26.3651 H   0  0  0  0  0  0  0  0  0  0  0  0
   18.7093   18.9303   26.5854 H   0  0  0  0  0  0  0  0  0  0  0  0
   20.6483   18.5563   27.3687 N   0  3  0  0  0  0  0  0  0  0  0  0
   21.6356   18.7699   27.1934 H   0  0  0  0  0  0  0  0  0  0  0  0
   20.5608   17.5352   27.3975 H   0  0  0  0  0  0  0  0  0  0  0  0
   20.4309   18.9012   28.3101 H   0  0  0  0  0  0  0  0  0  0  0  0
  1  2  1  0  0  0  0
  1  3  1  0  0  0  0
  1  4  1  0  0  0  0
  1  5  1  0  0  0  0
  5  6  1  0  0  0  0
  5  7  1  0  0  0  0
  5  8  1  0  0  0  0
  8  9  1  0  0  0  0
  8 10  1  0  0  0  0
  8 11  1  0  0  0  0
 11 12  1  0  0  0  0
 11 13  1  0  0  0  0
 11 14  1  0  0  0  0
 14 15  1  0  0  0  0
 14 16  1  0  0  0  0
 14 17  1  0  0  0  0
 17 18  1  0  0  0  0
 17 19  1  0  0  0  0
 17 20  1  0  0  0  0
 20 21  1  0  0  0  0
 20 22  1  0  0  0  0
 20 23  1  0  0  0  0
 23 24  1  0  0  0  0
 23 25  1  0  0  0  0
 23 26  1  0  0  0  0
M  END
> <VM2 Rank>
39

> <Conf_Id>
1185

> <Probability>
0.80

> <Sum Probability>
78.56

> <Delta G>
1.350

> <G>
49.611

> <E>
17.104

> <-TS>
32.507

> <U+W>
-4.358

> <U>
48.901

> <W>
-53.260

> <W(PB)>
-55.568

> <W(SA)>
2.309

> <Valence>
3.277

> <Coulomb>
44.745

> <VdW>
0.880

> <VdW6>
-6.990

> <VdW12>
7.870

> <Bond>
0.211

> <Angle>
0.950

> <Pdih>
2.115

> <Idih>
0.000

> <Tether>
0.000

$$$$
VeraChem MOL file


 26 25  0  0  0  0  0  0  0  0999 V2000     
   19.9871   19.3146   19.3324 C   0  0  0  0  0  0  0  0  0  0  0  0
   20.6205   20.1703   19.5965 H   0  0  0  0  0  0  0  0  0  0  0  0
   20.2659   18.9995   18.3186 H   0  0  0  0  0  0  0  0  0  0  0  0
   18.9436   19.6542   19.3030 H   0  0  0  0  0  0  0  0  0  0  0  0
   20.1635   18.1461   20.3288 C   0  0  0  0  0  0  0  0  0  0  0  0
   21.2206   17.8477   20.3661 H   0  0  0  0  0  0  0  0  0  0  0  0
   19.6116   17.2744   19.9505 H   0  0  0  0  0  0  0  0  0  0  0  0
   19.6598   18.4693   21.7565 C   0  0  0  0  0  0  0  0  0  0  0  0
   18.6025   18.7648   21.7139 H   0  0  0  0  0  0  0  0  0  0  0  0
   19.6999   17.5449   22.3465 H   0  0  0  0  0  0  0  0  0  0  0  0
   20.4840   19.5738   22.4660 C   0  0  0  0  0  0  0  0  0  0  0  0
   20.4468   20.4954   21.8710 H   0  0  0  0  0  0  0  0  0  0  0  0
   21.5409   19.2772   22.5110 H   0  0  0  0  0  0  0  0  0  0  0  0
   19.9770   19.9056   23.8914 C   0  0  0  0  0  0  0  0  0  0  0  0
   20.5266   20.7831   24.2597 H   0  0  0  0  0  0  0  0  0  0  0  0
   18.9196   20.2012   23.8470 H   0  0  0  0  0  0  0  0  0  0  0  0
   20.1535   18.7462   24.9003 C   0  0  0  0  0  0  0  0  0  0  0  0
   21.2006   18.4155   24.9042 H   0  0  0  0  0  0  0  0  0  0  0  0
   19.5426   17.8858   24.6001 H   0  0  0  0  0  0  0  0  0  0  0  0
   19.7480   19.1749   26.3215 C   0  0  0  0  0  0  0  0  0  0  0  0
   20.3631   20.0206   26.6406 H   0  0  0  0  0  0  0  0  0  0  0  0
   18.7010   19.4899   26.3263 H   0  0  0  0  0  0  0  0  0  0  0  0
   19.9082   18.0684   27.3440 N   0  3  0  0  0  0  0  0  0  0  0  0
   20.8790   17.7451   27.4083 H   0  0  0  0  0  0  0  0  0  0  0  0
   19.3322   17.2513   27.1165 H   0  0  0  0  0  0  0  0  0  0  0  0
   19.6331   18.3753   28.2835 H   0  0  0  0  0  0  0  0  0  0  0  0
  1  2  1  0  0  0  0
  1  3  1  0  0  0  0
  1  4  1  0  0  0  0
  1  5  1  0  0  0  0
  5  6  1  0  0  0  0
  5  7  1  0  0  0  0
  5  8  1  0  0  0  0
  8  9  1  0  0  0  0
  8 10  1  0  0  0  0
  8 11  1  0  0  0  0
 11 12  1  0  0  0  0
 11 13  1  0  0  0  0
 11 14  1  0  0  0  0
 14 15  1  0  0  0  0
 14 16  1  0  0  0  0
 14 17  1  0  0  0  0
 17 18  1  0  0  0  0
 17 19  1  0  0  0  0
 17 20  1  0  0  0  0
 20 21  1  0  0  0  0
 20 22  1  0  0  0  0
 20 23  1  0  0  0  0
 23 24  1  0  0  0  0
 23 25  1  0  0  0  0
 23 26  1  0  0  0  0
M  END
> <VM2 Rank>
40

> <Conf_Id>
931

> <Probability>
0.78

> <Sum Probability>
79.34

> <Delta G>
1.364

> <G>
49.626

> <E>
17.119

> <-TS>
32.507

> <U+W>
-4.343

> <U>
48.901

> <W>
-53.245

> <W(PB)>
-55.589

> <W(SA)>
2.344

> <Valence>
3.277

> <Coulomb>
44.745

> <VdW>
0.880

> <VdW6>
-6.990

> <VdW12>
7.870

> <Bond>
0.211

> <Angle>
0.950

> <Pdih>
2.115

> <Idih>
0.000

> <Tether>
0.000

$$$$
VeraChem MOL file


 26 25  0  0  0  0  0  0  0  0999 V2000     
   20.7062   19.7378   19.8747 C   0  0  0  0  0  0  0  0  0  0  0  0
   21.3823   19.7162   19.0102 H   0  0  0  0  0  0  0  0  0  0  0  0
   19.7439   20.1451   19.5382 H   0  0  0  0  0  0  0  0  0  0  0  0
   21.1344   20.4296   20.6106 H   0  0  0  0  0  0  0  0  0  0  0  0
   20.5341   18.3187   20.4623 C   0  0  0  0  0  0  0  0  0  0  0  0
   21.5046   17.9462   20.8188 H   0  0  0  0  0  0  0  0  0  0  0  0
   20.2203   17.6383   19.6584 H   0  0  0  0  0  0  0  0  0  0  0  0
   19.4940   18.2484   21.6064 C   0  0  0  0  0  0  0  0  0  0  0  0
   18.5201   18.5997   21.2384 H   0  0  0  0  0  0  0  0  0  0  0  0
   19.3564   17.1954   21.8881 H   0  0  0  0  0  0  0  0  0  0  0  0
   19.9014   19.0581   22.8607 C   0  0  0  0  0  0  0  0  0  0  0  0
   19.9687   20.1250   22.6103 H   0  0  0  0  0  0  0  0  0  0  0  0
   20.9017   18.7415   23.1844 H   0  0  0  0  0  0  0  0  0  0  0  0
   18.8878   18.8726   24.0152 C   0  0  0  0  0  0  0  0  0  0  0  0
   17.8843   19.1449   23.6599 H   0  0  0  0  0  0  0  0  0  0  0  0
   18.8341   17.8123   24.2963 H   0  0  0  0  0  0  0  0  0  0  0  0
   19.2190   19.7318   25.2612 C   0  0  0  0  0  0  0  0  0  0  0  0
   18.4404   19.5842   26.0213 H   0  0  0  0  0  0  0  0  0  0  0  0
   19.1821   20.7947   24.9879 H   0  0  0  0  0  0  0  0  0  0  0  0
   20.5967   19.4292   25.8848 C   0  0  0  0  0  0  0  0  0  0  0  0
   21.3845   19.6170   25.1508 H   0  0  0  0  0  0  0  0  0  0  0  0
   20.7626   20.0930   26.7377 H   0  0  0  0  0  0  0  0  0  0  0  0
   20.7418   18.0023   26.3756 N   0  3  0  0  0  0  0  0  0  0  0  0
   20.0443   17.7736   27.0912 H   0  0  0  0  0  0  0  0  0  0  0  0
   21.6643   17.8340   26.7912 H   0  0  0  0  0  0  0  0  0  0  0  0
   20.6268   17.3276   25.6130 H   0  0  0  0  0  0  0  0  0  0  0  0
  1  2  1  0  0  0  0
  1  3  1  0  0  0  0
  1  4  1  0  0  0  0
  1  5  1  0  0  0  0
  5  6  1  0  0  0  0
  5  7  1  0  0  0  0
  5  8  1  0  0  0  0
  8  9  1  0  0  0  0
  8 10  1  0  0  0  0
  8 11  1  0  0  0  0
 11 12  1  0  0  0  0
 11 13  1  0  0  0  0
 11 14  1  0  0  0  0
 14 15  1  0  0  0  0
 14 16  1  0  0  0  0
 14 17  1  0  0  0  0
 17 18  1  0  0  0  0
 17 19  1  0  0  0  0
 17 20  1  0  0  0  0
 20 21  1  0  0  0  0
 20 22  1  0  0  0  0
 20 23  1  0  0  0  0
 23 24  1  0  0  0  0
 23 25  1  0  0  0  0
 23 26  1  0  0  0  0
M  END
> <VM2 Rank>
41

> <Conf_Id>
1253

> <Probability>
0.66

> <Sum Probability>
80.00

> <Delta G>
1.465

> <G>
49.726

> <E>
16.976

> <-TS>
32.750

> <U+W>
-4.486

> <U>
49.277

> <W>
-53.764

> <W(PB)>
-56.060

> <W(SA)>
2.297

> <Valence>
3.047

> <Coulomb>
45.459

> <VdW>
0.771

> <VdW6>
-7.730

> <VdW12>
8.501

> <Bond>
0.210

> <Angle>
0.867

> <Pdih>
1.970

> <Idih>
0.000

> <Tether>
0.000

$$$$
VeraChem MOL file


 26 25  0  0  0  0  0  0  0  0999 V2000     
   19.1492   18.7120   19.8225 C   0  0  0  0  0  0  0  0  0  0  0  0
   18.3111   18.5699   20.5159 H   0  0  0  0  0  0  0  0  0  0  0  0
   19.1700   19.7666   19.5186 H   0  0  0  0  0  0  0  0  0  0  0  0
   18.9433   18.1091   18.9286 H   0  0  0  0  0  0  0  0  0  0  0  0
   20.4922   18.2910   20.4610 C   0  0  0  0  0  0  0  0  0  0  0  0
   21.2780   18.3346   19.6940 H   0  0  0  0  0  0  0  0  0  0  0  0
   20.4353   17.2418   20.7833 H   0  0  0  0  0  0  0  0  0  0  0  0
   20.9127   19.1831   21.6539 C   0  0  0  0  0  0  0  0  0  0  0  0
   21.9206   18.8847   21.9741 H   0  0  0  0  0  0  0  0  0  0  0  0
   20.9907   20.2273   21.3210 H   0  0  0  0  0  0  0  0  0  0  0  0
   19.9504   19.0905   22.8623 C   0  0  0  0  0  0  0  0  0  0  0  0
   19.8325   18.0372   23.1488 H   0  0  0  0  0  0  0  0  0  0  0  0
   18.9561   19.4578   22.5763 H   0  0  0  0  0  0  0  0  0  0  0  0
   20.4658   19.9127   24.0679 C   0  0  0  0  0  0  0  0  0  0  0  0
   21.4474   19.5347   24.3836 H   0  0  0  0  0  0  0  0  0  0  0  0
   20.6269   20.9525   23.7514 H   0  0  0  0  0  0  0  0  0  0  0  0
   19.4887   19.9096   25.2702 C   0  0  0  0  0  0  0  0  0  0  0  0
   18.5398   20.3715   24.9665 H   0  0  0  0  0  0  0  0  0  0  0  0
   19.8950   20.5430   26.0699 H   0  0  0  0  0  0  0  0  0  0  0  0
   19.1958   18.5059   25.8381 C   0  0  0  0  0  0  0  0  0  0  0  0
   18.4815   18.5895   26.6617 H   0  0  0  0  0  0  0  0  0  0  0  0
   18.7475   17.8792   25.0630 H   0  0  0  0  0  0  0  0  0  0  0  0
   20.4262   17.7943   26.3649 N   0  3  0  0  0  0  0  0  0  0  0  0
   20.8774   18.3225   27.1188 H   0  0  0  0  0  0  0  0  0  0  0  0
   21.1263   17.6569   25.6295 H   0  0  0  0  0  0  0  0  0  0  0  0
   20.1987   16.8680   26.7422 H   0  0  0  0  0  0  0  0  0  0  0  0
  1  2  1  0  0  0  0
  1  3  1  0  0  0  0
  1  4  1  0  0  0  0
  1  5  1  0  0  0  0
  5  6  1  0  0  0  0
  5  7  1  0  0  0  0
  5  8  1  0  0  0  0
  8  9  1  0  0  0  0
  8 10  1  0  0  0  0
  8 11  1  0  0  0  0
 11 12  1  0  0  0  0
 11 13  1  0  0  0  0
 11 14  1  0  0  0  0
 14 15  1  0  0  0  0
 14 16  1  0  0  0  0
 14 17  1  0  0  0  0
 17 18  1  0  0  0  0
 17 19  1  0  0  0  0
 17 20  1  0  0  0  0
 20 21  1  0  0  0  0
 20 22  1  0  0  0  0
 20 23  1  0  0  0  0
 23 24  1  0  0  0  0
 23 25  1  0  0  0  0
 23 26  1  0  0  0  0
M  END
> <VM2 Rank>
42

> <Conf_Id>
166

> <Probability>
0.64

> <Sum Probability>
80.64

> <Delta G>
1.482

> <G>
49.743

> <E>
16.993

> <-TS>
32.750

> <U+W>
-4.469

> <U>
49.278

> <W>
-53.747

> <W(PB)>
-56.035

> <W(SA)>
2.288

> <Valence>
3.047

> <Coulomb>
45.459

> <VdW>
0.771

> <VdW6>
-7.730

> <VdW12>
8.501

> <Bond>
0.210

> <Angle>
0.867

> <Pdih>
1.970

> <Idih>
0.000

> <Tether>
0.000

$$$$
VeraChem MOL file


 26 25  0  0  0  0  0  0  0  0999 V2000     
   20.3826   19.9109   19.6220 C   0  0  0  0  0  0  0  0  0  0  0  0
   19.3596   19.8036   19.2382 H   0  0  0  0  0  0  0  0  0  0  0  0
   20.4925   20.9268   20.0233 H   0  0  0  0  0  0  0  0  0  0  0  0
   21.0729   19.8068   18.7748 H   0  0  0  0  0  0  0  0  0  0  0  0
   20.6833   18.8515   20.7034 C   0  0  0  0  0  0  0  0  0  0  0  0
   21.7224   18.9627   21.0437 H   0  0  0  0  0  0  0  0  0  0  0  0
   20.5994   17.8479   20.2634 H   0  0  0  0  0  0  0  0  0  0  0  0
   19.7242   18.9755   21.9079 C   0  0  0  0  0  0  0  0  0  0  0  0
   19.8110   19.9844   22.3320 H   0  0  0  0  0  0  0  0  0  0  0  0
   18.6871   18.8614   21.5636 H   0  0  0  0  0  0  0  0  0  0  0  0
   20.0279   17.9172   22.9952 C   0  0  0  0  0  0  0  0  0  0  0  0
   21.0509   18.0548   23.3698 H   0  0  0  0  0  0  0  0  0  0  0  0
   20.0047   16.9184   22.5378 H   0  0  0  0  0  0  0  0  0  0  0  0
   19.0224   17.9367   24.1756 C   0  0  0  0  0  0  0  0  0  0  0  0
   18.0187   17.7021   23.7953 H   0  0  0  0  0  0  0  0  0  0  0  0
   19.2744   17.1232   24.8690 H   0  0  0  0  0  0  0  0  0  0  0  0
   18.9600   19.2747   24.9583 C   0  0  0  0  0  0  0  0  0  0  0  0
   18.2593   19.1694   25.7971 H   0  0  0  0  0  0  0  0  0  0  0  0
   18.5410   20.0595   24.3156 H   0  0  0  0  0  0  0  0  0  0  0  0
   20.3244   19.7488   25.4976 C   0  0  0  0  0  0  0  0  0  0  0  0
   21.0203   19.8908   24.6667 H   0  0  0  0  0  0  0  0  0  0  0  0
   20.2009   20.7090   26.0057 H   0  0  0  0  0  0  0  0  0  0  0  0
   20.9562   18.7837   26.4811 N   0  3  0  0  0  0  0  0  0  0  0  0
   21.8602   19.1259   26.8243 H   0  0  0  0  0  0  0  0  0  0  0  0
   21.1221   17.8665   26.0555 H   0  0  0  0  0  0  0  0  0  0  0  0
   20.3609   18.6338   27.3021 H   0  0  0  0  0  0  0  0  0  0  0  0
  1  2  1  0  0  0  0
  1  3  1  0  0  0  0
  1  4  1  0  0  0  0
  1  5  1  0  0  0  0
  5  6  1  0  0  0  0
  5  7  1  0  0  0  0
  5  8  1  0  0  0  0
  8  9  1  0  0  0  0
  8 10  1  0  0  0  0
  8 11  1  0  0  0  0
 11 12  1  0  0  0  0
 11 13  1  0  0  0  0
 11 14  1  0  0  0  0
 14 15  1  0  0  0  0
 14 16  1  0  0  0  0
 14 17  1  0  0  0  0
 17 18  1  0  0  0  0
 17 19  1  0  0  0  0
 17 20  1  0  0  0  0
 20 21  1  0  0  0  0
 20 22  1  0  0  0  0
 20 23  1  0  0  0  0
 23 24  1  0  0  0  0
 23 25  1  0  0  0  0
 23 26  1  0  0  0  0
M  END
> <VM2 Rank>
43

> <Conf_Id>
70

> <Probability>
0.63

> <Sum Probability>
81.27

> <Delta G>
1.492

> <G>
49.754

> <E>
16.853

> <-TS>
32.901

> <U+W>
-4.609

> <U>
49.198

> <W>
-53.807

> <W(PB)>
-56.083

> <W(SA)>
2.276

> <Valence>
3.018

> <Coulomb>
45.590

> <VdW>
0.590

> <VdW6>
-8.074

> <VdW12>
8.663

> <Bond>
0.222

> <Angle>
0.958

> <Pdih>
1.839

> <Idih>
0.000

> <Tether>
0.000

$$$$
VeraChem MOL file


 26 25  0  0  0  0  0  0  0  0999 V2000     
   19.3873   19.9493   20.2013 C   0  0  0  0  0  0  0  0  0  0  0  0
   19.4658   20.6430   21.0477 H   0  0  0  0  0  0  0  0  0  0  0  0
   20.2322   20.1337   19.5253 H   0  0  0  0  0  0  0  0  0  0  0  0
   18.4640   20.1922   19.6596 H   0  0  0  0  0  0  0  0  0  0  0  0
   19.3660   18.4786   20.6753 C   0  0  0  0  0  0  0  0  0  0  0  0
   19.1672   17.8311   19.8099 H   0  0  0  0  0  0  0  0  0  0  0  0
   18.5255   18.3234   21.3649 H   0  0  0  0  0  0  0  0  0  0  0  0
   20.6926   18.0245   21.3360 C   0  0  0  0  0  0  0  0  0  0  0  0
   20.6047   16.9653   21.6143 H   0  0  0  0  0  0  0  0  0  0  0  0
   21.4959   18.0727   20.5880 H   0  0  0  0  0  0  0  0  0  0  0  0
   21.1252   18.8389   22.5826 C   0  0  0  0  0  0  0  0  0  0  0  0
   21.3273   19.8800   22.2977 H   0  0  0  0  0  0  0  0  0  0  0  0
   22.0805   18.4343   22.9444 H   0  0  0  0  0  0  0  0  0  0  0  0
   20.0935   18.8011   23.7353 C   0  0  0  0  0  0  0  0  0  0  0  0
   19.1557   19.2722   23.4123 H   0  0  0  0  0  0  0  0  0  0  0  0
   19.8610   17.7558   23.9781 H   0  0  0  0  0  0  0  0  0  0  0  0
   20.6164   19.5310   24.9950 C   0  0  0  0  0  0  0  0  0  0  0  0
   20.8842   20.5630   24.7320 H   0  0  0  0  0  0  0  0  0  0  0  0
   21.5360   19.0504   25.3547 H   0  0  0  0  0  0  0  0  0  0  0  0
   19.5785   19.5715   26.1332 C   0  0  0  0  0  0  0  0  0  0  0  0
   19.9708   20.1690   26.9607 H   0  0  0  0  0  0  0  0  0  0  0  0
   18.6595   20.0446   25.7767 H   0  0  0  0  0  0  0  0  0  0  0  0
   19.2215   18.2041   26.6823 N   0  3  0  0  0  0  0  0  0  0  0  0
   20.0432   17.7172   27.0547 H   0  0  0  0  0  0  0  0  0  0  0  0
   18.8121   17.6009   25.9623 H   0  0  0  0  0  0  0  0  0  0  0  0
   18.5390   18.2667   27.4455 H   0  0  0  0  0  0  0  0  0  0  0  0
  1  2  1  0  0  0  0
  1  3  1  0  0  0  0
  1  4  1  0  0  0  0
  1  5  1  0  0  0  0
  5  6  1  0  0  0  0
  5  7  1  0  0  0  0
  5  8  1  0  0  0  0
  8  9  1  0  0  0  0
  8 10  1  0  0  0  0
  8 11  1  0  0  0  0
 11 12  1  0  0  0  0
 11 13  1  0  0  0  0
 11 14  1  0  0  0  0
 14 15  1  0  0  0  0
 14 16  1  0  0  0  0
 14 17  1  0  0  0  0
 17 18  1  0  0  0  0
 17 19  1  0  0  0  0
 17 20  1  0  0  0  0
 20 21  1  0  0  0  0
 20 22  1  0  0  0  0
 20 23  1  0  0  0  0
 23 24  1  0  0  0  0
 23 25  1  0  0  0  0
 23 26  1  0  0  0  0
M  END
> <VM2 Rank>
44

> <Conf_Id>
1114

> <Probability>
0.62

> <Sum Probability>
81.90

> <Delta G>
1.500

> <G>
49.761

> <E>
16.874

> <-TS>
32.888

> <U+W>
-4.588

> <U>
49.147

> <W>
-53.735

> <W(PB)>
-56.021

> <W(SA)>
2.286

> <Valence>
3.219

> <Coulomb>
45.149

> <VdW>
0.779

> <VdW6>
-7.884

> <VdW12>
8.663

> <Bond>
0.228

> <Angle>
1.077

> <Pdih>
1.914

> <Idih>
0.000

> <Tether>
0.000

$$$$
VeraChem MOL file


 26 25  0  0  0  0  0  0  0  0999 V2000     
   19.8855   19.7488   19.6630 C   0  0  0  0  0  0  0  0  0  0  0  0
   20.2915   20.7146   19.9908 H   0  0  0  0  0  0  0  0  0  0  0  0
   19.9667   19.7043   18.5692 H   0  0  0  0  0  0  0  0  0  0  0  0
   18.8184   19.7204   19.9160 H   0  0  0  0  0  0  0  0  0  0  0  0
   20.6534   18.5744   20.3108 C   0  0  0  0  0  0  0  0  0  0  0  0
   21.6868   18.5770   19.9367 H   0  0  0  0  0  0  0  0  0  0  0  0
   20.2121   17.6212   19.9876 H   0  0  0  0  0  0  0  0  0  0  0  0
   20.6841   18.6400   21.8568 C   0  0  0  0  0  0  0  0  0  0  0  0
   21.3303   17.8326   22.2278 H   0  0  0  0  0  0  0  0  0  0  0  0
   21.1547   19.5825   22.1663 H   0  0  0  0  0  0  0  0  0  0  0  0
   19.2827   18.5061   22.5045 C   0  0  0  0  0  0  0  0  0  0  0  0
   18.7789   17.6226   22.0889 H   0  0  0  0  0  0  0  0  0  0  0  0
   18.6608   19.3712   22.2389 H   0  0  0  0  0  0  0  0  0  0  0  0
   19.3287   18.3665   24.0458 C   0  0  0  0  0  0  0  0  0  0  0  0
   18.3093   18.1761   24.4093 H   0  0  0  0  0  0  0  0  0  0  0  0
   19.9227   17.4821   24.3122 H   0  0  0  0  0  0  0  0  0  0  0  0
   19.8920   19.6203   24.7602 C   0  0  0  0  0  0  0  0  0  0  0  0
   19.3466   20.5100   24.4184 H   0  0  0  0  0  0  0  0  0  0  0  0
   20.9450   19.7740   24.4925 H   0  0  0  0  0  0  0  0  0  0  0  0
   19.7695   19.5322   26.2936 C   0  0  0  0  0  0  0  0  0  0  0  0
   20.1087   20.4712   26.7395 H   0  0  0  0  0  0  0  0  0  0  0  0
   18.7228   19.3813   26.5712 H   0  0  0  0  0  0  0  0  0  0  0  0
   20.5850   18.4106   26.9063 N   0  3  0  0  0  0  0  0  0  0  0  0
   21.5843   18.5097   26.7001 H   0  0  0  0  0  0  0  0  0  0  0  0
   20.2925   17.4934   26.5553 H   0  0  0  0  0  0  0  0  0  0  0  0
   20.4908   18.3853   27.9275 H   0  0  0  0  0  0  0  0  0  0  0  0
  1  2  1  0  0  0  0
  1  3  1  0  0  0  0
  1  4  1  0  0  0  0
  1  5  1  0  0  0  0
  5  6  1  0  0  0  0
  5  7  1  0  0  0  0
  5  8  1  0  0  0  0
  8  9  1  0  0  0  0
  8 10  1  0  0  0  0
  8 11  1  0  0  0  0
 11 12  1  0  0  0  0
 11 13  1  0  0  0  0
 11 14  1  0  0  0  0
 14 15  1  0  0  0  0
 14 16  1  0  0  0  0
 14 17  1  0  0  0  0
 17 18  1  0  0  0  0
 17 19  1  0  0  0  0
 17 20  1  0  0  0  0
 20 21  1  0  0  0  0
 20 22  1  0  0  0  0
 20 23  1  0  0  0  0
 23 24  1  0  0  0  0
 23 25  1  0  0  0  0
 23 26  1  0  0  0  0
M  END
> <VM2 Rank>
45

> <Conf_Id>
854

> <Probability>
0.62

> <Sum Probability>
82.52

> <Delta G>
1.501

> <G>
49.763

> <E>
17.062

> <-TS>
32.701

> <U+W>
-4.400

> <U>
49.228

> <W>
-53.627

> <W(PB)>
-55.902

> <W(SA)>
2.275

> <Valence>
3.267

> <Coulomb>
45.067

> <VdW>
0.893

> <VdW6>
-7.615

> <VdW12>
8.508

> <Bond>
0.224

> <Angle>
0.867

> <Pdih>
2.176

> <Idih>
0.000

> <Tether>
0.000

$$$$
VeraChem MOL file


 26 25  0  0  0  0  0  0  0  0999 V2000     
   21.4562   18.7058   20.5078 C   0  0  0  0  0  0  0  0  0  0  0  0
   21.7321   18.1687   21.4239 H   0  0  0  0  0  0  0  0  0  0  0  0
   21.1168   17.9708   19.7665 H   0  0  0  0  0  0  0  0  0  0  0  0
   22.3650   19.1819   20.1175 H   0  0  0  0  0  0  0  0  0  0  0  0
   20.3642   19.7649   20.7797 C   0  0  0  0  0  0  0  0  0  0  0  0
   20.2074   20.3539   19.8653 H   0  0  0  0  0  0  0  0  0  0  0  0
   20.7183   20.4767   21.5373 H   0  0  0  0  0  0  0  0  0  0  0  0
   19.0063   19.1541   21.2110 C   0  0  0  0  0  0  0  0  0  0  0  0
   18.2828   19.9680   21.3567 H   0  0  0  0  0  0  0  0  0  0  0  0
   18.6125   18.5467   20.3845 H   0  0  0  0  0  0  0  0  0  0  0  0
   19.0480   18.2816   22.4922 C   0  0  0  0  0  0  0  0  0  0  0  0
   19.6804   17.3998   22.3242 H   0  0  0  0  0  0  0  0  0  0  0  0
   18.0364   17.8960   22.6794 H   0  0  0  0  0  0  0  0  0  0  0  0
   19.5368   19.0455   23.7461 C   0  0  0  0  0  0  0  0  0  0  0  0
   20.5720   19.3761   23.5948 H   0  0  0  0  0  0  0  0  0  0  0  0
   18.9278   19.9495   23.8855 H   0  0  0  0  0  0  0  0  0  0  0  0
   19.4566   18.1685   25.0180 C   0  0  0  0  0  0  0  0  0  0  0  0
   20.0828   17.2743   24.8985 H   0  0  0  0  0  0  0  0  0  0  0  0
   18.4259   17.8137   25.1511 H   0  0  0  0  0  0  0  0  0  0  0  0
   19.8789   18.9262   26.2915 C   0  0  0  0  0  0  0  0  0  0  0  0
   19.2627   19.8217   26.4085 H   0  0  0  0  0  0  0  0  0  0  0  0
   19.7193   18.2863   27.1637 H   0  0  0  0  0  0  0  0  0  0  0  0
   21.3340   19.3523   26.2946 N   0  3  0  0  0  0  0  0  0  0  0  0
   21.5853   19.8412   27.1607 H   0  0  0  0  0  0  0  0  0  0  0  0
   21.5452   19.9878   25.5192 H   0  0  0  0  0  0  0  0  0  0  0  0
   21.9658   18.5494   26.2101 H   0  0  0  0  0  0  0  0  0  0  0  0
  1  2  1  0  0  0  0
  1  3  1  0  0  0  0
  1  4  1  0  0  0  0
  1  5  1  0  0  0  0
  5  6  1  0  0  0  0
  5  7  1  0  0  0  0
  5  8  1  0  0  0  0
  8  9  1  0  0  0  0
  8 10  1  0  0  0  0
  8 11  1  0  0  0  0
 11 12  1  0  0  0  0
 11 13  1  0  0  0  0
 11 14  1  0  0  0  0
 14 15  1  0  0  0  0
 14 16  1  0  0  0  0
 14 17  1  0  0  0  0
 17 18  1  0  0  0  0
 17 19  1  0  0  0  0
 17 20  1  0  0  0  0
 20 21  1  0  0  0  0
 20 22  1  0  0  0  0
 20 23  1  0  0  0  0
 23 24  1  0  0  0  0
 23 25  1  0  0  0  0
 23 26  1  0  0  0  0
M  END
> <VM2 Rank>
46

> <Conf_Id>
291

> <Probability>
0.62

> <Sum Probability>
83.13

> <Delta G>
1.507

> <G>
49.769

> <E>
16.878

> <-TS>
32.890

> <U+W>
-4.584

> <U>
49.426

> <W>
-54.010

> <W(PB)>
-56.292

> <W(SA)>
2.282

> <Valence>
3.214

> <Coulomb>
45.444

> <VdW>
0.769

> <VdW6>
-7.916

> <VdW12>
8.684

> <Bond>
0.230

> <Angle>
1.078

> <Pdih>
1.906

> <Idih>
0.000

> <Tether>
0.000

$$$$
VeraChem MOL file


 26 25  0  0  0  0  0  0  0  0999 V2000     
   19.4715   19.4758   19.6491 C   0  0  0  0  0  0  0  0  0  0  0  0
   18.4098   19.4741   19.9279 H   0  0  0  0  0  0  0  0  0  0  0  0
   19.9054   20.4368   19.9521 H   0  0  0  0  0  0  0  0  0  0  0  0
   19.5314   19.4170   18.5546 H   0  0  0  0  0  0  0  0  0  0  0  0
   20.2179   18.2872   20.2963 C   0  0  0  0  0  0  0  0  0  0  0  0
   21.2817   18.3262   20.0235 H   0  0  0  0  0  0  0  0  0  0  0  0
   19.8267   17.3507   19.8746 H   0  0  0  0  0  0  0  0  0  0  0  0
   20.0736   18.2376   21.8364 C   0  0  0  0  0  0  0  0  0  0  0  0
   19.0087   18.1678   22.0946 H   0  0  0  0  0  0  0  0  0  0  0  0
   20.5438   17.3142   22.2017 H   0  0  0  0  0  0  0  0  0  0  0  0
   20.7171   19.4519   22.5524 C   0  0  0  0  0  0  0  0  0  0  0  0
   20.1794   20.3725   22.2896 H   0  0  0  0  0  0  0  0  0  0  0  0
   21.7458   19.5789   22.1880 H   0  0  0  0  0  0  0  0  0  0  0  0
   20.7556   19.3074   24.0934 C   0  0  0  0  0  0  0  0  0  0  0  0
   21.3220   18.4048   24.3589 H   0  0  0  0  0  0  0  0  0  0  0  0
   21.3141   20.1574   24.5096 H   0  0  0  0  0  0  0  0  0  0  0  0
   19.3496   19.2627   24.7422 C   0  0  0  0  0  0  0  0  0  0  0  0
   18.8071   18.3645   24.4211 H   0  0  0  0  0  0  0  0  0  0  0  0
   18.7628   20.1251   24.3990 H   0  0  0  0  0  0  0  0  0  0  0  0
   19.4073   19.2933   26.2815 C   0  0  0  0  0  0  0  0  0  0  0  0
   19.9443   20.1865   26.6121 H   0  0  0  0  0  0  0  0  0  0  0  0
   18.3910   19.3386   26.6822 H   0  0  0  0  0  0  0  0  0  0  0  0
   20.0884   18.0831   26.8897 N   0  3  0  0  0  0  0  0  0  0  0  0
   20.1012   18.1283   27.9144 H   0  0  0  0  0  0  0  0  0  0  0  0
   21.0620   18.0006   26.5809 H   0  0  0  0  0  0  0  0  0  0  0  0
   19.6142   17.2108   26.6343 H   0  0  0  0  0  0  0  0  0  0  0  0
  1  2  1  0  0  0  0
  1  3  1  0  0  0  0
  1  4  1  0  0  0  0
  1  5  1  0  0  0  0
  5  6  1  0  0  0  0
  5  7  1  0  0  0  0
  5  8  1  0  0  0  0
  8  9  1  0  0  0  0
  8 10  1  0  0  0  0
  8 11  1  0  0  0  0
 11 12  1  0  0  0  0
 11 13  1  0  0  0  0
 11 14  1  0  0  0  0
 14 15  1  0  0  0  0
 14 16  1  0  0  0  0
 14 17  1  0  0  0  0
 17 18  1  0  0  0  0
 17 19  1  0  0  0  0
 17 20  1  0  0  0  0
 20 21  1  0  0  0  0
 20 22  1  0  0  0  0
 20 23  1  0  0  0  0
 23 24  1  0  0  0  0
 23 25  1  0  0  0  0
 23 26  1  0  0  0  0
M  END
> <VM2 Rank>
47

> <Conf_Id>
839

> <Probability>
0.61

> <Sum Probability>
83.74

> <Delta G>
1.514

> <G>
49.776

> <E>
17.075

> <-TS>
32.701

> <U+W>
-4.387

> <U>
49.228

> <W>
-53.615

> <W(PB)>
-55.904

> <W(SA)>
2.288

> <Valence>
3.267

> <Coulomb>
45.067

> <VdW>
0.893

> <VdW6>
-7.615

> <VdW12>
8.509

> <Bond>
0.224

> <Angle>
0.867

> <Pdih>
2.176

> <Idih>
0.000

> <Tether>
0.000

$$$$
VeraChem MOL file


 26 25  0  0  0  0  0  0  0  0999 V2000     
   18.6707   19.4662   20.2868 C   0  0  0  0  0  0  0  0  0  0  0  0
   18.6703   20.5463   20.4827 H   0  0  0  0  0  0  0  0  0  0  0  0
   18.1935   19.3017   19.3121 H   0  0  0  0  0  0  0  0  0  0  0  0
   18.0464   18.9783   21.0455 H   0  0  0  0  0  0  0  0  0  0  0  0
   20.1096   18.9019   20.2862 C   0  0  0  0  0  0  0  0  0  0  0  0
   20.6566   19.3287   19.4339 H   0  0  0  0  0  0  0  0  0  0  0  0
   20.0808   17.8159   20.1201 H   0  0  0  0  0  0  0  0  0  0  0  0
   20.8933   19.2122   21.5844 C   0  0  0  0  0  0  0  0  0  0  0  0
   21.9314   18.8771   21.4529 H   0  0  0  0  0  0  0  0  0  0  0  0
   20.9365   20.2997   21.7355 H   0  0  0  0  0  0  0  0  0  0  0  0
   20.2981   18.5335   22.8413 C   0  0  0  0  0  0  0  0  0  0  0  0
   20.2133   17.4519   22.6679 H   0  0  0  0  0  0  0  0  0  0  0  0
   19.2824   18.9101   23.0153 H   0  0  0  0  0  0  0  0  0  0  0  0
   21.1682   18.7886   24.0955 C   0  0  0  0  0  0  0  0  0  0  0  0
   22.1933   18.4453   23.8987 H   0  0  0  0  0  0  0  0  0  0  0  0
   21.2394   19.8680   24.2846 H   0  0  0  0  0  0  0  0  0  0  0  0
   20.6419   18.0650   25.3604 C   0  0  0  0  0  0  0  0  0  0  0  0
   21.3276   18.2527   26.1974 H   0  0  0  0  0  0  0  0  0  0  0  0
   20.6576   16.9804   25.1896 H   0  0  0  0  0  0  0  0  0  0  0  0
   19.2154   18.4798   25.7747 C   0  0  0  0  0  0  0  0  0  0  0  0
   18.5147   18.2530   24.9670 H   0  0  0  0  0  0  0  0  0  0  0  0
   18.9130   17.9081   26.6563 H   0  0  0  0  0  0  0  0  0  0  0  0
   19.0838   19.9518   26.1117 N   0  3  0  0  0  0  0  0  0  0  0  0
   18.1271   20.1951   26.3904 H   0  0  0  0  0  0  0  0  0  0  0  0
   19.3251   20.5450   25.3118 H   0  0  0  0  0  0  0  0  0  0  0  0
   19.6993   20.2210   26.8861 H   0  0  0  0  0  0  0  0  0  0  0  0
  1  2  1  0  0  0  0
  1  3  1  0  0  0  0
  1  4  1  0  0  0  0
  1  5  1  0  0  0  0
  5  6  1  0  0  0  0
  5  7  1  0  0  0  0
  5  8  1  0  0  0  0
  8  9  1  0  0  0  0
  8 10  1  0  0  0  0
  8 11  1  0  0  0  0
 11 12  1  0  0  0  0
 11 13  1  0  0  0  0
 11 14  1  0  0  0  0
 14 15  1  0  0  0  0
 14 16  1  0  0  0  0
 14 17  1  0  0  0  0
 17 18  1  0  0  0  0
 17 19  1  0  0  0  0
 17 20  1  0  0  0  0
 20 21  1  0  0  0  0
 20 22  1  0  0  0  0
 20 23  1  0  0  0  0
 23 24  1  0  0  0  0
 23 25  1  0  0  0  0
 23 26  1  0  0  0  0
M  END
> <VM2 Rank>
48

> <Conf_Id>
1373

> <Probability>
0.60

> <Sum Probability>
84.34

> <Delta G>
1.523

> <G>
49.784

> <E>
17.036

> <-TS>
32.749

> <U+W>
-4.426

> <U>
49.414

> <W>
-53.840

> <W(PB)>
-56.134

> <W(SA)>
2.294

> <Valence>
3.043

> <Coulomb>
45.606

> <VdW>
0.765

> <VdW6>
-7.758

> <VdW12>
8.523

> <Bond>
0.212

> <Angle>
0.867

> <Pdih>
1.964

> <Idih>
0.000

> <Tether>
0.000

$$$$
VeraChem MOL file


 26 25  0  0  0  0  0  0  0  0999 V2000     
   19.4579   19.9958   20.2035 C   0  0  0  0  0  0  0  0  0  0  0  0
   18.9884   19.3133   19.4833 H   0  0  0  0  0  0  0  0  0  0  0  0
   18.7503   20.1712   21.0234 H   0  0  0  0  0  0  0  0  0  0  0  0
   19.6228   20.9562   19.6983 H   0  0  0  0  0  0  0  0  0  0  0  0
   20.7949   19.4208   20.7231 C   0  0  0  0  0  0  0  0  0  0  0  0
   21.2352   20.1104   21.4557 H   0  0  0  0  0  0  0  0  0  0  0  0
   21.5081   19.3747   19.8884 H   0  0  0  0  0  0  0  0  0  0  0  0
   20.6600   18.0030   21.3349 C   0  0  0  0  0  0  0  0  0  0  0  0
   20.3350   17.3072   20.5492 H   0  0  0  0  0  0  0  0  0  0  0  0
   21.6543   17.6574   21.6495 H   0  0  0  0  0  0  0  0  0  0  0  0
   19.6839   17.8886   22.5344 C   0  0  0  0  0  0  0  0  0  0  0  0
   19.6633   16.8406   22.8636 H   0  0  0  0  0  0  0  0  0  0  0  0
   18.6617   18.1225   22.2086 H   0  0  0  0  0  0  0  0  0  0  0  0
   20.0703   18.7859   23.7345 C   0  0  0  0  0  0  0  0  0  0  0  0
   21.1105   18.5799   24.0197 H   0  0  0  0  0  0  0  0  0  0  0  0
   20.0209   19.8429   23.4413 H   0  0  0  0  0  0  0  0  0  0  0  0
   19.1362   18.5546   24.9457 C   0  0  0  0  0  0  0  0  0  0  0  0
   19.1999   17.5094   25.2767 H   0  0  0  0  0  0  0  0  0  0  0  0
   18.0953   18.7234   24.6390 H   0  0  0  0  0  0  0  0  0  0  0  0
   19.4535   19.4889   26.1291 C   0  0  0  0  0  0  0  0  0  0  0  0
   19.3961   20.5304   25.8016 H   0  0  0  0  0  0  0  0  0  0  0  0
   18.7124   19.3385   26.9189 H   0  0  0  0  0  0  0  0  0  0  0  0
   20.8243   19.2613   26.7356 N   0  3  0  0  0  0  0  0  0  0  0  0
   20.9993   19.8894   27.5275 H   0  0  0  0  0  0  0  0  0  0  0  0
   21.5724   19.4219   26.0541 H   0  0  0  0  0  0  0  0  0  0  0  0
   20.9319   18.3031   27.0841 H   0  0  0  0  0  0  0  0  0  0  0  0
  1  2  1  0  0  0  0
  1  3  1  0  0  0  0
  1  4  1  0  0  0  0
  1  5  1  0  0  0  0
  5  6  1  0  0  0  0
  5  7  1  0  0  0  0
  5  8  1  0  0  0  0
  8  9  1  0  0  0  0
  8 10  1  0  0  0  0
  8 11  1  0  0  0  0
 11 12  1  0  0  0  0
 11 13  1  0  0  0  0
 11 14  1  0  0  0  0
 14 15  1  0  0  0  0
 14 16  1  0  0  0  0
 14 17  1  0  0  0  0
 17 18  1  0  0  0  0
 17 19  1  0  0  0  0
 17 20  1  0  0  0  0
 20 21  1  0  0  0  0
 20 22  1  0  0  0  0
 20 23  1  0  0  0  0
 23 24  1  0  0  0  0
 23 25  1  0  0  0  0
 23 26  1  0  0  0  0
M  END
> <VM2 Rank>
49

> <Conf_Id>
1343

> <Probability>
0.57

> <Sum Probability>
84.91

> <Delta G>
1.550

> <G>
49.811

> <E>
16.924

> <-TS>
32.887

> <U+W>
-4.538

> <U>
49.147

> <W>
-53.685

> <W(PB)>
-55.961

> <W(SA)>
2.275

> <Valence>
3.219

> <Coulomb>
45.149

> <VdW>
0.779

> <VdW6>
-7.884

> <VdW12>
8.663

> <Bond>
0.228

> <Angle>
1.077

> <Pdih>
1.914

> <Idih>
0.000

> <Tether>
0.000

$$$$
VeraChem MOL file


 26 25  0  0  0  0  0  0  0  0999 V2000     
   19.1294   19.0842   19.5797 C   0  0  0  0  0  0  0  0  0  0  0  0
   18.1344   19.3718   19.9439 H   0  0  0  0  0  0  0  0  0  0  0  0
   19.6478   19.9931   19.2475 H   0  0  0  0  0  0  0  0  0  0  0  0
   18.9933   18.4351   18.7050 H   0  0  0  0  0  0  0  0  0  0  0  0
   19.9336   18.3571   20.6782 C   0  0  0  0  0  0  0  0  0  0  0  0
   20.9089   18.0518   20.2738 H   0  0  0  0  0  0  0  0  0  0  0  0
   19.4074   17.4362   20.9662 H   0  0  0  0  0  0  0  0  0  0  0  0
   20.1403   19.2499   21.9216 C   0  0  0  0  0  0  0  0  0  0  0  0
   20.6684   20.1681   21.6297 H   0  0  0  0  0  0  0  0  0  0  0  0
   19.1597   19.5551   22.3100 H   0  0  0  0  0  0  0  0  0  0  0  0
   20.9424   18.5204   23.0257 C   0  0  0  0  0  0  0  0  0  0  0  0
   21.8901   18.1619   22.6009 H   0  0  0  0  0  0  0  0  0  0  0  0
   20.3967   17.6236   23.3479 H   0  0  0  0  0  0  0  0  0  0  0  0
   21.2643   19.4154   24.2504 C   0  0  0  0  0  0  0  0  0  0  0  0
   21.8804   18.8421   24.9559 H   0  0  0  0  0  0  0  0  0  0  0  0
   21.8915   20.2566   23.9245 H   0  0  0  0  0  0  0  0  0  0  0  0
   20.0234   19.9761   24.9938 C   0  0  0  0  0  0  0  0  0  0  0  0
   19.4968   20.6898   24.3475 H   0  0  0  0  0  0  0  0  0  0  0  0
   20.3562   20.5527   25.8670 H   0  0  0  0  0  0  0  0  0  0  0  0
   19.0274   18.8931   25.4546 C   0  0  0  0  0  0  0  0  0  0  0  0
   18.1702   19.3695   25.9381 H   0  0  0  0  0  0  0  0  0  0  0  0
   18.6625   18.3351   24.5884 H   0  0  0  0  0  0  0  0  0  0  0  0
   19.6203   17.9027   26.4370 N   0  3  0  0  0  0  0  0  0  0  0  0
   20.4175   17.4018   26.0326 H   0  0  0  0  0  0  0  0  0  0  0  0
   18.9353   17.1967   26.7274 H   0  0  0  0  0  0  0  0  0  0  0  0
   19.9536   18.3655   27.2889 H   0  0  0  0  0  0  0  0  0  0  0  0
  1  2  1  0  0  0  0
  1  3  1  0  0  0  0
  1  4  1  0  0  0  0
  1  5  1  0  0  0  0
  5  6  1  0  0  0  0
  5  7  1  0  0  0  0
  5  8  1  0  0  0  0
  8  9  1  0  0  0  0
  8 10  1  0  0  0  0
  8 11  1  0  0  0  0
 11 12  1  0  0  0  0
 11 13  1  0  0  0  0
 11 14  1  0  0  0  0
 14 15  1  0  0  0  0
 14 16  1  0  0  0  0
 14 17  1  0  0  0  0
 17 18  1  0  0  0  0
 17 19  1  0  0  0  0
 17 20  1  0  0  0  0
 20 21  1  0  0  0  0
 20 22  1  0  0  0  0
 20 23  1  0  0  0  0
 23 24  1  0  0  0  0
 23 25  1  0  0  0  0
 23 26  1  0  0  0  0
M  END
> <VM2 Rank>
50

> <Conf_Id>
172

> <Probability>
0.57

> <Sum Probability>
85.48

> <Delta G>
1.553

> <G>
49.815

> <E>
16.915

> <-TS>
32.900

> <U+W>
-4.547

> <U>
49.197

> <W>
-53.744

> <W(PB)>
-56.032

> <W(SA)>
2.288

> <Valence>
3.018

> <Coulomb>
45.589

> <VdW>
0.590

> <VdW6>
-8.073

> <VdW12>
8.663

> <Bond>
0.221

> <Angle>
0.958

> <Pdih>
1.839

> <Idih>
0.000

> <Tether>
0.000

$$$$
VeraChem MOL file


 26 25  0  0  0  0  0  0  0  0999 V2000     
   21.0185   19.4050   19.7603 C   0  0  0  0  0  0  0  0  0  0  0  0
   21.2148   20.4360   20.0820 H   0  0  0  0  0  0  0  0  0  0  0  0
   21.7876   18.7559   20.1970 H   0  0  0  0  0  0  0  0  0  0  0  0
   21.1339   19.3659   18.6694 H   0  0  0  0  0  0  0  0  0  0  0  0
   19.5977   18.9558   20.1704 C   0  0  0  0  0  0  0  0  0  0  0  0
   19.4355   17.9141   19.8603 H   0  0  0  0  0  0  0  0  0  0  0  0
   18.8622   19.5585   19.6194 H   0  0  0  0  0  0  0  0  0  0  0  0
   19.3228   19.0998   21.6867 C   0  0  0  0  0  0  0  0  0  0  0  0
   19.4572   20.1501   21.9765 H   0  0  0  0  0  0  0  0  0  0  0  0
   18.2679   18.8570   21.8750 H   0  0  0  0  0  0  0  0  0  0  0  0
   20.2177   18.1858   22.5616 C   0  0  0  0  0  0  0  0  0  0  0  0
   21.2674   18.4978   22.4812 H   0  0  0  0  0  0  0  0  0  0  0  0
   20.1686   17.1596   22.1722 H   0  0  0  0  0  0  0  0  0  0  0  0
   19.8065   18.1639   24.0544 C   0  0  0  0  0  0  0  0  0  0  0  0
   18.7616   17.8356   24.1436 H   0  0  0  0  0  0  0  0  0  0  0  0
   20.4131   17.4042   24.5648 H   0  0  0  0  0  0  0  0  0  0  0  0
   19.9867   19.5292   24.7644 C   0  0  0  0  0  0  0  0  0  0  0  0
   19.3525   20.2845   24.2838 H   0  0  0  0  0  0  0  0  0  0  0  0
   21.0235   19.8750   24.6583 H   0  0  0  0  0  0  0  0  0  0  0  0
   19.6128   19.4759   26.2584 C   0  0  0  0  0  0  0  0  0  0  0  0
   19.6663   20.4829   26.6810 H   0  0  0  0  0  0  0  0  0  0  0  0
   18.5870   19.1142   26.3685 H   0  0  0  0  0  0  0  0  0  0  0  0
   20.5184   18.5836   27.0847 N   0  3  0  0  0  0  0  0  0  0  0  0
   20.2510   18.5826   28.0750 H   0  0  0  0  0  0  0  0  0  0  0  0
   21.4965   18.8871   27.0391 H   0  0  0  0  0  0  0  0  0  0  0  0
   20.4876   17.6106   26.7650 H   0  0  0  0  0  0  0  0  0  0  0  0
  1  2  1  0  0  0  0
  1  3  1  0  0  0  0
  1  4  1  0  0  0  0
  1  5  1  0  0  0  0
  5  6  1  0  0  0  0
  5  7  1  0  0  0  0
  5  8  1  0  0  0  0
  8  9  1  0  0  0  0
  8 10  1  0  0  0  0
  8 11  1  0  0  0  0
 11 12  1  0  0  0  0
 11 13  1  0  0  0  0
 11 14  1  0  0  0  0
 14 15  1  0  0  0  0
 14 16  1  0  0  0  0
 14 17  1  0  0  0  0
 17 18  1  0  0  0  0
 17 19  1  0  0  0  0
 17 20  1  0  0  0  0
 20 21  1  0  0  0  0
 20 22  1  0  0  0  0
 20 23  1  0  0  0  0
 23 24  1  0  0  0  0
 23 25  1  0  0  0  0
 23 26  1  0  0  0  0
M  END
> <VM2 Rank>
51

> <Conf_Id>
727

> <Probability>
0.55

> <Sum Probability>
86.03

> <Delta G>
1.577

> <G>
49.839

> <E>
17.164

> <-TS>
32.675

> <U+W>
-4.298

> <U>
49.153

> <W>
-53.451

> <W(PB)>
-55.735

> <W(SA)>
2.284

> <Valence>
3.298

> <Coulomb>
44.906

> <VdW>
0.948

> <VdW6>
-7.574

> <VdW12>
8.523

> <Bond>
0.229

> <Angle>
0.912

> <Pdih>
2.157

> <Idih>
0.000

> <Tether>
0.000

$$$$
VeraChem MOL file


 26 25  0  0  0  0  0  0  0  0999 V2000     
   19.7733   17.5957   20.4515 C   0  0  0  0  0  0  0  0  0  0  0  0
   20.1157   17.1025   21.3698 H   0  0  0  0  0  0  0  0  0  0  0  0
   18.9975   16.9606   20.0048 H   0  0  0  0  0  0  0  0  0  0  0  0
   20.6163   17.6406   19.7498 H   0  0  0  0  0  0  0  0  0  0  0  0
   19.2164   19.0079   20.7413 C   0  0  0  0  0  0  0  0  0  0  0  0
   18.3883   18.9398   21.4593 H   0  0  0  0  0  0  0  0  0  0  0  0
   18.7795   19.4120   19.8175 H   0  0  0  0  0  0  0  0  0  0  0  0
   20.2904   20.0012   21.2539 C   0  0  0  0  0  0  0  0  0  0  0  0
   21.0414   20.1490   20.4657 H   0  0  0  0  0  0  0  0  0  0  0  0
   19.8200   20.9821   21.4081 H   0  0  0  0  0  0  0  0  0  0  0  0
   21.0159   19.5797   22.5580 C   0  0  0  0  0  0  0  0  0  0  0  0
   21.7585   20.3512   22.8038 H   0  0  0  0  0  0  0  0  0  0  0  0
   21.5855   18.6565   22.3878 H   0  0  0  0  0  0  0  0  0  0  0  0
   20.0640   19.3933   23.7637 C   0  0  0  0  0  0  0  0  0  0  0  0
   19.4663   20.3046   23.9036 H   0  0  0  0  0  0  0  0  0  0  0  0
   19.3610   18.5773   23.5543 H   0  0  0  0  0  0  0  0  0  0  0  0
   20.8419   19.0822   25.0642 C   0  0  0  0  0  0  0  0  0  0  0  0
   21.5663   19.8850   25.2560 H   0  0  0  0  0  0  0  0  0  0  0  0
   21.4229   18.1582   24.9432 H   0  0  0  0  0  0  0  0  0  0  0  0
   19.9210   18.9539   26.2930 C   0  0  0  0  0  0  0  0  0  0  0  0
   20.5308   18.8215   27.1908 H   0  0  0  0  0  0  0  0  0  0  0  0
   19.3349   19.8693   26.4109 H   0  0  0  0  0  0  0  0  0  0  0  0
   18.9581   17.7852   26.2153 N   0  3  0  0  0  0  0  0  0  0  0  0
   18.3275   17.8655   25.4118 H   0  0  0  0  0  0  0  0  0  0  0  0
   18.3701   17.7205   27.0534 H   0  0  0  0  0  0  0  0  0  0  0  0
   19.4515   16.8910   26.1261 H   0  0  0  0  0  0  0  0  0  0  0  0
  1  2  1  0  0  0  0
  1  3  1  0  0  0  0
  1  4  1  0  0  0  0
  1  5  1  0  0  0  0
  5  6  1  0  0  0  0
  5  7  1  0  0  0  0
  5  8  1  0  0  0  0
  8  9  1  0  0  0  0
  8 10  1  0  0  0  0
  8 11  1  0  0  0  0
 11 12  1  0  0  0  0
 11 13  1  0  0  0  0
 11 14  1  0  0  0  0
 14 15  1  0  0  0  0
 14 16  1  0  0  0  0
 14 17  1  0  0  0  0
 17 18  1  0  0  0  0
 17 19  1  0  0  0  0
 17 20  1  0  0  0  0
 20 21  1  0  0  0  0
 20 22  1  0  0  0  0
 20 23  1  0  0  0  0
 23 24  1  0  0  0  0
 23 25  1  0  0  0  0
 23 26  1  0  0  0  0
M  END
> <VM2 Rank>
52

> <Conf_Id>
1215

> <Probability>
0.55

> <Sum Probability>
86.58

> <Delta G>
1.577

> <G>
49.839

> <E>
16.948

> <-TS>
32.890

> <U+W>
-4.513

> <U>
49.426

> <W>
-53.940

> <W(PB)>
-56.204

> <W(SA)>
2.264

> <Valence>
3.214

> <Coulomb>
45.444

> <VdW>
0.768

> <VdW6>
-7.916

> <VdW12>
8.684

> <Bond>
0.230

> <Angle>
1.079

> <Pdih>
1.906

> <Idih>
0.000

> <Tether>
0.000

$$$$
VeraChem MOL file


 26 25  0  0  0  0  0  0  0  0999 V2000     
   19.3375   18.2964   19.7042 C   0  0  0  0  0  0  0  0  0  0  0  0
   19.6111   17.3207   20.1244 H   0  0  0  0  0  0  0  0  0  0  0  0
   18.2985   18.5130   19.9845 H   0  0  0  0  0  0  0  0  0  0  0  0
   19.3789   18.2084   18.6108 H   0  0  0  0  0  0  0  0  0  0  0  0
   20.2890   19.4117   20.1935 C   0  0  0  0  0  0  0  0  0  0  0  0
   20.0501   20.3417   19.6590 H   0  0  0  0  0  0  0  0  0  0  0  0
   21.3239   19.1592   19.9234 H   0  0  0  0  0  0  0  0  0  0  0  0
   20.1942   19.6745   21.7158 C   0  0  0  0  0  0  0  0  0  0  0  0
   20.8228   20.5418   21.9602 H   0  0  0  0  0  0  0  0  0  0  0  0
   19.1632   19.9563   21.9666 H   0  0  0  0  0  0  0  0  0  0  0  0
   20.6415   18.4653   22.5758 C   0  0  0  0  0  0  0  0  0  0  0  0
   21.6214   18.1177   22.2208 H   0  0  0  0  0  0  0  0  0  0  0  0
   19.9464   17.6266   22.4371 H   0  0  0  0  0  0  0  0  0  0  0  0
   20.7536   18.7886   24.0861 C   0  0  0  0  0  0  0  0  0  0  0  0
   21.1895   17.9163   24.5908 H   0  0  0  0  0  0  0  0  0  0  0  0
   21.4612   19.6162   24.2338 H   0  0  0  0  0  0  0  0  0  0  0  0
   19.3957   19.1394   24.7446 C   0  0  0  0  0  0  0  0  0  0  0  0
   18.6759   18.3266   24.5798 H   0  0  0  0  0  0  0  0  0  0  0  0
   18.9733   20.0343   24.2712 H   0  0  0  0  0  0  0  0  0  0  0  0
   19.5219   19.4160   26.2553 C   0  0  0  0  0  0  0  0  0  0  0  0
   20.2517   20.2124   26.4241 H   0  0  0  0  0  0  0  0  0  0  0  0
   18.5562   19.7507   26.6439 H   0  0  0  0  0  0  0  0  0  0  0  0
   19.9477   18.2072   27.0656 N   0  3  0  0  0  0  0  0  0  0  0  0
   20.8684   17.8619   26.7778 H   0  0  0  0  0  0  0  0  0  0  0  0
   19.2871   17.4296   26.9653 H   0  0  0  0  0  0  0  0  0  0  0  0
   20.0075   18.4221   28.0669 H   0  0  0  0  0  0  0  0  0  0  0  0
  1  2  1  0  0  0  0
  1  3  1  0  0  0  0
  1  4  1  0  0  0  0
  1  5  1  0  0  0  0
  5  6  1  0  0  0  0
  5  7  1  0  0  0  0
  5  8  1  0  0  0  0
  8  9  1  0  0  0  0
  8 10  1  0  0  0  0
  8 11  1  0  0  0  0
 11 12  1  0  0  0  0
 11 13  1  0  0  0  0
 11 14  1  0  0  0  0
 14 15  1  0  0  0  0
 14 16  1  0  0  0  0
 14 17  1  0  0  0  0
 17 18  1  0  0  0  0
 17 19  1  0  0  0  0
 17 20  1  0  0  0  0
 20 21  1  0  0  0  0
 20 22  1  0  0  0  0
 20 23  1  0  0  0  0
 23 24  1  0  0  0  0
 23 25  1  0  0  0  0
 23 26  1  0  0  0  0
M  END
> <VM2 Rank>
53

> <Conf_Id>
240

> <Probability>
0.52

> <Sum Probability>
87.10

> <Delta G>
1.602

> <G>
49.864

> <E>
17.189

> <-TS>
32.675

> <U+W>
-4.273

> <U>
49.153

> <W>
-53.426

> <W(PB)>
-55.726

> <W(SA)>
2.300

> <Valence>
3.298

> <Coulomb>
44.907

> <VdW>
0.948

> <VdW6>
-7.574

> <VdW12>
8.522

> <Bond>
0.229

> <Angle>
0.912

> <Pdih>
2.157

> <Idih>
0.000

> <Tether>
0.000

$$$$
VeraChem MOL file


 26 25  0  0  0  0  0  0  0  0999 V2000     
   19.6023   20.0066   19.7417 C   0  0  0  0  0  0  0  0  0  0  0  0
   19.6404   19.2719   18.9268 H   0  0  0  0  0  0  0  0  0  0  0  0
   18.5481   20.2001   19.9787 H   0  0  0  0  0  0  0  0  0  0  0  0
   20.0421   20.9421   19.3723 H   0  0  0  0  0  0  0  0  0  0  0  0
   20.3655   19.4988   20.9833 C   0  0  0  0  0  0  0  0  0  0  0  0
   20.3392   20.2751   21.7596 H   0  0  0  0  0  0  0  0  0  0  0  0
   21.4219   19.3426   20.7237 H   0  0  0  0  0  0  0  0  0  0  0  0
   19.7610   18.1822   21.5254 C   0  0  0  0  0  0  0  0  0  0  0  0
   18.7174   18.3475   21.8238 H   0  0  0  0  0  0  0  0  0  0  0  0
   19.7269   17.4445   20.7119 H   0  0  0  0  0  0  0  0  0  0  0  0
   20.5610   17.5694   22.7042 C   0  0  0  0  0  0  0  0  0  0  0  0
   21.5627   17.2932   22.3470 H   0  0  0  0  0  0  0  0  0  0  0  0
   20.0803   16.6283   23.0047 H   0  0  0  0  0  0  0  0  0  0  0  0
   20.7120   18.4771   23.9527 C   0  0  0  0  0  0  0  0  0  0  0  0
   21.3068   17.9318   24.6972 H   0  0  0  0  0  0  0  0  0  0  0  0
   21.2952   19.3719   23.6982 H   0  0  0  0  0  0  0  0  0  0  0  0
   19.3593   18.8955   24.5815 C   0  0  0  0  0  0  0  0  0  0  0  0
   18.7632   18.0047   24.8202 H   0  0  0  0  0  0  0  0  0  0  0  0
   18.7781   19.4786   23.8563 H   0  0  0  0  0  0  0  0  0  0  0  0
   19.5336   19.7534   25.8496 C   0  0  0  0  0  0  0  0  0  0  0  0
   20.1430   20.6314   25.6193 H   0  0  0  0  0  0  0  0  0  0  0  0
   18.5537   20.0986   26.1905 H   0  0  0  0  0  0  0  0  0  0  0  0
   20.1862   19.0161   27.0026 N   0  3  0  0  0  0  0  0  0  0  0  0
   20.2735   19.6106   27.8340 H   0  0  0  0  0  0  0  0  0  0  0  0
   21.1293   18.6950   26.7632 H   0  0  0  0  0  0  0  0  0  0  0  0
   19.6461   18.1902   27.2806 H   0  0  0  0  0  0  0  0  0  0  0  0
  1  2  1  0  0  0  0
  1  3  1  0  0  0  0
  1  4  1  0  0  0  0
  1  5  1  0  0  0  0
  5  6  1  0  0  0  0
  5  7  1  0  0  0  0
  5  8  1  0  0  0  0
  8  9  1  0  0  0  0
  8 10  1  0  0  0  0
  8 11  1  0  0  0  0
 11 12  1  0  0  0  0
 11 13  1  0  0  0  0
 11 14  1  0  0  0  0
 14 15  1  0  0  0  0
 14 16  1  0  0  0  0
 14 17  1  0  0  0  0
 17 18  1  0  0  0  0
 17 19  1  0  0  0  0
 17 20  1  0  0  0  0
 20 21  1  0  0  0  0
 20 22  1  0  0  0  0
 20 23  1  0  0  0  0
 23 24  1  0  0  0  0
 23 25  1  0  0  0  0
 23 26  1  0  0  0  0
M  END
> <VM2 Rank>
54

> <Conf_Id>
429

> <Probability>
0.52

> <Sum Probability>
87.62

> <Delta G>
1.612

> <G>
49.873

> <E>
16.983

> <-TS>
32.890

> <U+W>
-4.479

> <U>
49.231

> <W>
-53.710

> <W(PB)>
-55.983

> <W(SA)>
2.273

> <Valence>
3.276

> <Coulomb>
45.175

> <VdW>
0.779

> <VdW6>
-7.944

> <VdW12>
8.723

> <Bond>
0.239

> <Angle>
1.155

> <Pdih>
1.883

> <Idih>
0.000

> <Tether>
0.000

$$$$
VeraChem MOL file


 26 25  0  0  0  0  0  0  0  0999 V2000     
   20.4786   19.5130   19.4477 C   0  0  0  0  0  0  0  0  0  0  0  0
   21.4640   19.7581   19.8623 H   0  0  0  0  0  0  0  0  0  0  0  0
   20.6277   19.2077   18.4039 H   0  0  0  0  0  0  0  0  0  0  0  0
   19.8686   20.4257   19.4462 H   0  0  0  0  0  0  0  0  0  0  0  0
   19.7886   18.3844   20.2473 C   0  0  0  0  0  0  0  0  0  0  0  0
   20.4334   17.4947   20.2638 H   0  0  0  0  0  0  0  0  0  0  0  0
   18.8712   18.0889   19.7190 H   0  0  0  0  0  0  0  0  0  0  0  0
   19.4175   18.7894   21.6946 C   0  0  0  0  0  0  0  0  0  0  0  0
   18.7717   19.6779   21.6722 H   0  0  0  0  0  0  0  0  0  0  0  0
   18.8164   17.9801   22.1281 H   0  0  0  0  0  0  0  0  0  0  0  0
   20.6502   19.0606   22.5944 C   0  0  0  0  0  0  0  0  0  0  0  0
   21.2524   19.8651   22.1532 H   0  0  0  0  0  0  0  0  0  0  0  0
   21.2944   18.1710   22.6201 H   0  0  0  0  0  0  0  0  0  0  0  0
   20.2840   19.4782   24.0403 C   0  0  0  0  0  0  0  0  0  0  0  0
   21.2054   19.7954   24.5462 H   0  0  0  0  0  0  0  0  0  0  0  0
   19.6279   20.3593   24.0138 H   0  0  0  0  0  0  0  0  0  0  0  0
   19.6113   18.3498   24.8621 C   0  0  0  0  0  0  0  0  0  0  0  0
   20.2494   17.4561   24.8677 H   0  0  0  0  0  0  0  0  0  0  0  0
   18.6652   18.0579   24.3903 H   0  0  0  0  0  0  0  0  0  0  0  0
   19.3065   18.7724   26.3124 C   0  0  0  0  0  0  0  0  0  0  0  0
   18.6881   19.6740   26.3109 H   0  0  0  0  0  0  0  0  0  0  0  0
   18.7469   17.9763   26.8111 H   0  0  0  0  0  0  0  0  0  0  0  0
   20.5444   19.0512   27.1423 N   0  3  0  0  0  0  0  0  0  0  0  0
   20.3061   19.3148   28.1046 H   0  0  0  0  0  0  0  0  0  0  0  0
   21.1000   19.8178   26.7504 H   0  0  0  0  0  0  0  0  0  0  0  0
   21.1570   18.2312   27.1996 H   0  0  0  0  0  0  0  0  0  0  0  0
  1  2  1  0  0  0  0
  1  3  1  0  0  0  0
  1  4  1  0  0  0  0
  1  5  1  0  0  0  0
  5  6  1  0  0  0  0
  5  7  1  0  0  0  0
  5  8  1  0  0  0  0
  8  9  1  0  0  0  0
  8 10  1  0  0  0  0
  8 11  1  0  0  0  0
 11 12  1  0  0  0  0
 11 13  1  0  0  0  0
 11 14  1  0  0  0  0
 14 15  1  0  0  0  0
 14 16  1  0  0  0  0
 14 17  1  0  0  0  0
 17 18  1  0  0  0  0
 17 19  1  0  0  0  0
 17 20  1  0  0  0  0
 20 21  1  0  0  0  0
 20 22  1  0  0  0  0
 20 23  1  0  0  0  0
 23 24  1  0  0  0  0
 23 25  1  0  0  0  0
 23 26  1  0  0  0  0
M  END
> <VM2 Rank>
55

> <Conf_Id>
1048

> <Probability>
0.50

> <Sum Probability>
88.11

> <Delta G>
1.634

> <G>
49.896

> <E>
17.316

> <-TS>
32.579

> <U+W>
-4.146

> <U>
49.323

> <W>
-53.468

> <W(PB)>
-55.770

> <W(SA)>
2.301

> <Valence>
3.408

> <Coulomb>
44.893

> <VdW>
1.021

> <VdW6>
-7.482

> <VdW12>
8.503

> <Bond>
0.239

> <Angle>
1.013

> <Pdih>
2.156

> <Idih>
0.000

> <Tether>
0.000

$$$$
VeraChem MOL file


 26 25  0  0  0  0  0  0  0  0999 V2000     
   20.6458   20.3701   20.5104 C   0  0  0  0  0  0  0  0  0  0  0  0
   21.4620   20.6907   21.1708 H   0  0  0  0  0  0  0  0  0  0  0  0
   20.8657   20.7404   19.5007 H   0  0  0  0  0  0  0  0  0  0  0  0
   19.7210   20.8557   20.8455 H   0  0  0  0  0  0  0  0  0  0  0  0
   20.5084   18.8306   20.5038 C   0  0  0  0  0  0  0  0  0  0  0  0
   21.4106   18.3962   20.0510 H   0  0  0  0  0  0  0  0  0  0  0  0
   19.6687   18.5370   19.8585 H   0  0  0  0  0  0  0  0  0  0  0  0
   20.3206   18.2260   21.9159 C   0  0  0  0  0  0  0  0  0  0  0  0
   20.3389   17.1306   21.8330 H   0  0  0  0  0  0  0  0  0  0  0  0
   21.1783   18.5052   22.5419 H   0  0  0  0  0  0  0  0  0  0  0  0
   18.9990   18.6600   22.5986 C   0  0  0  0  0  0  0  0  0  0  0  0
   18.1632   18.4753   21.9098 H   0  0  0  0  0  0  0  0  0  0  0  0
   19.0073   19.7418   22.7828 H   0  0  0  0  0  0  0  0  0  0  0  0
   18.7148   17.9092   23.9251 C   0  0  0  0  0  0  0  0  0  0  0  0
   17.7479   18.2484   24.3219 H   0  0  0  0  0  0  0  0  0  0  0  0
   18.5954   16.8374   23.7144 H   0  0  0  0  0  0  0  0  0  0  0  0
   19.7967   18.0892   25.0191 C   0  0  0  0  0  0  0  0  0  0  0  0
   20.7400   17.6323   24.6935 H   0  0  0  0  0  0  0  0  0  0  0  0
   19.4848   17.5423   25.9188 H   0  0  0  0  0  0  0  0  0  0  0  0
   20.0345   19.5662   25.3844 C   0  0  0  0  0  0  0  0  0  0  0  0
   20.3850   20.1119   24.5044 H   0  0  0  0  0  0  0  0  0  0  0  0
   19.0969   20.0179   25.7195 H   0  0  0  0  0  0  0  0  0  0  0  0
   21.0611   19.7478   26.4837 N   0  3  0  0  0  0  0  0  0  0  0  0
   21.2044   20.7377   26.7113 H   0  0  0  0  0  0  0  0  0  0  0  0
   21.9754   19.3667   26.2195 H   0  0  0  0  0  0  0  0  0  0  0  0
   20.7783   19.2802   27.3512 H   0  0  0  0  0  0  0  0  0  0  0  0
  1  2  1  0  0  0  0
  1  3  1  0  0  0  0
  1  4  1  0  0  0  0
  1  5  1  0  0  0  0
  5  6  1  0  0  0  0
  5  7  1  0  0  0  0
  5  8  1  0  0  0  0
  8  9  1  0  0  0  0
  8 10  1  0  0  0  0
  8 11  1  0  0  0  0
 11 12  1  0  0  0  0
 11 13  1  0  0  0  0
 11 14  1  0  0  0  0
 14 15  1  0  0  0  0
 14 16  1  0  0  0  0
 14 17  1  0  0  0  0
 17 18  1  0  0  0  0
 17 19  1  0  0  0  0
 17 20  1  0  0  0  0
 20 21  1  0  0  0  0
 20 22  1  0  0  0  0
 20 23  1  0  0  0  0
 23 24  1  0  0  0  0
 23 25  1  0  0  0  0
 23 26  1  0  0  0  0
M  END
> <VM2 Rank>
56

> <Conf_Id>
802

> <Probability>
0.50

> <Sum Probability>
88.61

> <Delta G>
1.635

> <G>
49.897

> <E>
17.076

> <-TS>
32.821

> <U+W>
-4.386

> <U>
49.567

> <W>
-53.953

> <W(PB)>
-56.238

> <W(SA)>
2.285

> <Valence>
3.381

> <Coulomb>
45.516

> <VdW>
0.670

> <VdW6>
-8.071

> <VdW12>
8.741

> <Bond>
0.231

> <Angle>
1.069

> <Pdih>
2.080

> <Idih>
0.000

> <Tether>
0.000

$$$$
VeraChem MOL file


 26 25  0  0  0  0  0  0  0  0999 V2000     
   19.5764   19.1707   19.2685 C   0  0  0  0  0  0  0  0  0  0  0  0
   20.2102   19.9918   18.9089 H   0  0  0  0  0  0  0  0  0  0  0  0
   19.6006   18.3723   18.5155 H   0  0  0  0  0  0  0  0  0  0  0  0
   18.5445   19.5394   19.3358 H   0  0  0  0  0  0  0  0  0  0  0  0
   20.0681   18.6466   20.6345 C   0  0  0  0  0  0  0  0  0  0  0  0
   21.0908   18.2585   20.5287 H   0  0  0  0  0  0  0  0  0  0  0  0
   19.4363   17.8020   20.9391 H   0  0  0  0  0  0  0  0  0  0  0  0
   20.0386   19.7546   21.7139 C   0  0  0  0  0  0  0  0  0  0  0  0
   20.6080   20.6208   21.3495 H   0  0  0  0  0  0  0  0  0  0  0  0
   19.0070   20.1035   21.8590 H   0  0  0  0  0  0  0  0  0  0  0  0
   20.6348   19.3149   23.0739 C   0  0  0  0  0  0  0  0  0  0  0  0
   20.6951   20.2006   23.7198 H   0  0  0  0  0  0  0  0  0  0  0  0
   21.6674   18.9691   22.9275 H   0  0  0  0  0  0  0  0  0  0  0  0
   19.8096   18.2116   23.7839 C   0  0  0  0  0  0  0  0  0  0  0  0
   18.7699   18.5441   23.9036 H   0  0  0  0  0  0  0  0  0  0  0  0
   19.7730   17.3150   23.1519 H   0  0  0  0  0  0  0  0  0  0  0  0
   20.3945   17.8034   25.1596 C   0  0  0  0  0  0  0  0  0  0  0  0
   21.4069   17.4024   25.0176 H   0  0  0  0  0  0  0  0  0  0  0  0
   19.7967   16.9828   25.5779 H   0  0  0  0  0  0  0  0  0  0  0  0
   20.4570   18.9530   26.1860 C   0  0  0  0  0  0  0  0  0  0  0  0
   20.8982   18.5848   27.1162 H   0  0  0  0  0  0  0  0  0  0  0  0
   21.0926   19.7562   25.8048 H   0  0  0  0  0  0  0  0  0  0  0  0
   19.1020   19.5442   26.5207 N   0  3  0  0  0  0  0  0  0  0  0  0
   19.1754   20.2994   27.2110 H   0  0  0  0  0  0  0  0  0  0  0  0
   18.4664   18.8413   26.9117 H   0  0  0  0  0  0  0  0  0  0  0  0
   18.6466   19.9372   25.6911 H   0  0  0  0  0  0  0  0  0  0  0  0
  1  2  1  0  0  0  0
  1  3  1  0  0  0  0
  1  4  1  0  0  0  0
  1  5  1  0  0  0  0
  5  6  1  0  0  0  0
  5  7  1  0  0  0  0
  5  8  1  0  0  0  0
  8  9  1  0  0  0  0
  8 10  1  0  0  0  0
  8 11  1  0  0  0  0
 11 12  1  0  0  0  0
 11 13  1  0  0  0  0
 11 14  1  0  0  0  0
 14 15  1  0  0  0  0
 14 16  1  0  0  0  0
 14 17  1  0  0  0  0
 17 18  1  0  0  0  0
 17 19  1  0  0  0  0
 17 20  1  0  0  0  0
 20 21  1  0  0  0  0
 20 22  1  0  0  0  0
 20 23  1  0  0  0  0
 23 24  1  0  0  0  0
 23 25  1  0  0  0  0
 23 26  1  0  0  0  0
M  END
> <VM2 Rank>
57

> <Conf_Id>
1340

> <Probability>
0.49

> <Sum Probability>
89.10

> <Delta G>
1.646

> <G>
49.907

> <E>
17.200

> <-TS>
32.708

> <U+W>
-4.262

> <U>
49.425

> <W>
-53.687

> <W(PB)>
-55.970

> <W(SA)>
2.283

> <Valence>
3.135

> <Coulomb>
45.468

> <VdW>
0.822

> <VdW6>
-7.705

> <VdW12>
8.527

> <Bond>
0.222

> <Angle>
0.941

> <Pdih>
1.972

> <Idih>
0.000

> <Tether>
0.000

$$$$
VeraChem MOL file


 26 25  0  0  0  0  0  0  0  0999 V2000     
   19.4648   18.8448   19.4138 C   0  0  0  0  0  0  0  0  0  0  0  0
   18.8663   19.7650   19.4127 H   0  0  0  0  0  0  0  0  0  0  0  0
   19.7352   18.6194   18.3741 H   0  0  0  0  0  0  0  0  0  0  0  0
   18.8333   18.0236   19.7744 H   0  0  0  0  0  0  0  0  0  0  0  0
   20.7352   19.0087   20.2789 C   0  0  0  0  0  0  0  0  0  0  0  0
   21.3916   19.7509   19.8033 H   0  0  0  0  0  0  0  0  0  0  0  0
   21.2983   18.0651   20.2926 H   0  0  0  0  0  0  0  0  0  0  0  0
   20.4417   19.4648   21.7289 C   0  0  0  0  0  0  0  0  0  0  0  0
   21.4009   19.6844   22.2144 H   0  0  0  0  0  0  0  0  0  0  0  0
   19.8803   20.4089   21.7093 H   0  0  0  0  0  0  0  0  0  0  0  0
   19.6667   18.4118   22.5616 C   0  0  0  0  0  0  0  0  0  0  0  0
   20.2296   17.4686   22.5845 H   0  0  0  0  0  0  0  0  0  0  0  0
   18.7118   18.1893   22.0682 H   0  0  0  0  0  0  0  0  0  0  0  0
   19.3596   18.8684   24.0094 C   0  0  0  0  0  0  0  0  0  0  0  0
   18.8091   19.8191   23.9864 H   0  0  0  0  0  0  0  0  0  0  0  0
   18.6829   18.1315   24.4619 H   0  0  0  0  0  0  0  0  0  0  0  0
   20.6219   19.0162   24.8959 C   0  0  0  0  0  0  0  0  0  0  0  0
   21.2835   19.7847   24.4778 H   0  0  0  0  0  0  0  0  0  0  0  0
   21.1920   18.0778   24.8993 H   0  0  0  0  0  0  0  0  0  0  0  0
   20.2860   19.4185   26.3451 C   0  0  0  0  0  0  0  0  0  0  0  0
   21.2136   19.6034   26.8935 H   0  0  0  0  0  0  0  0  0  0  0  0
   19.7007   20.3419   26.3446 H   0  0  0  0  0  0  0  0  0  0  0  0
   19.5051   18.3659   27.1076 N   0  3  0  0  0  0  0  0  0  0  0  0
   19.3117   18.6593   28.0714 H   0  0  0  0  0  0  0  0  0  0  0  0
   20.0151   17.4782   27.1616 H   0  0  0  0  0  0  0  0  0  0  0  0
   18.6011   18.1698   26.6670 H   0  0  0  0  0  0  0  0  0  0  0  0
  1  2  1  0  0  0  0
  1  3  1  0  0  0  0
  1  4  1  0  0  0  0
  1  5  1  0  0  0  0
  5  6  1  0  0  0  0
  5  7  1  0  0  0  0
  5  8  1  0  0  0  0
  8  9  1  0  0  0  0
  8 10  1  0  0  0  0
  8 11  1  0  0  0  0
 11 12  1  0  0  0  0
 11 13  1  0  0  0  0
 11 14  1  0  0  0  0
 14 15  1  0  0  0  0
 14 16  1  0  0  0  0
 14 17  1  0  0  0  0
 17 18  1  0  0  0  0
 17 19  1  0  0  0  0
 17 20  1  0  0  0  0
 20 21  1  0  0  0  0
 20 22  1  0  0  0  0
 20 23  1  0  0  0  0
 23 24  1  0  0  0  0
 23 25  1  0  0  0  0
 23 26  1  0  0  0  0
M  END
> <VM2 Rank>
58

> <Conf_Id>
1063

> <Probability>
0.49

> <Sum Probability>
89.58

> <Delta G>
1.649

> <G>
49.910

> <E>
17.331

> <-TS>
32.579

> <U+W>
-4.131

> <U>
49.323

> <W>
-53.454

> <W(PB)>
-55.750

> <W(SA)>
2.296

> <Valence>
3.408

> <Coulomb>
44.893

> <VdW>
1.021

> <VdW6>
-7.482

> <VdW12>
8.503

> <Bond>
0.238

> <Angle>
1.013

> <Pdih>
2.156

> <Idih>
0.000

> <Tether>
0.000

$$$$
VeraChem MOL file


 26 25  0  0  0  0  0  0  0  0999 V2000     
   19.3416   19.8345   19.7330 C   0  0  0  0  0  0  0  0  0  0  0  0
   20.0396   19.5353   18.9402 H   0  0  0  0  0  0  0  0  0  0  0  0
   18.3269   19.8104   19.3149 H   0  0  0  0  0  0  0  0  0  0  0  0
   19.5663   20.8720   20.0128 H   0  0  0  0  0  0  0  0  0  0  0  0
   19.4510   18.8953   20.9527 C   0  0  0  0  0  0  0  0  0  0  0  0
   19.1922   17.8713   20.6491 H   0  0  0  0  0  0  0  0  0  0  0  0
   18.7120   19.2014   21.7052 H   0  0  0  0  0  0  0  0  0  0  0  0
   20.8724   18.9155   21.5626 C   0  0  0  0  0  0  0  0  0  0  0  0
   21.6014   18.6814   20.7746 H   0  0  0  0  0  0  0  0  0  0  0  0
   21.1160   19.9302   21.9040 H   0  0  0  0  0  0  0  0  0  0  0  0
   21.0666   17.9030   22.7211 C   0  0  0  0  0  0  0  0  0  0  0  0
   22.1058   17.9648   23.0724 H   0  0  0  0  0  0  0  0  0  0  0  0
   20.9440   16.8850   22.3263 H   0  0  0  0  0  0  0  0  0  0  0  0
   20.1154   18.0835   23.9327 C   0  0  0  0  0  0  0  0  0  0  0  0
   19.0764   17.9078   23.6240 H   0  0  0  0  0  0  0  0  0  0  0  0
   20.3484   17.2994   24.6652 H   0  0  0  0  0  0  0  0  0  0  0  0
   20.2324   19.4716   24.6107 C   0  0  0  0  0  0  0  0  0  0  0  0
   19.9584   20.2574   23.8957 H   0  0  0  0  0  0  0  0  0  0  0  0
   21.2734   19.6611   24.9040 H   0  0  0  0  0  0  0  0  0  0  0  0
   19.3169   19.6104   25.8424 C   0  0  0  0  0  0  0  0  0  0  0  0
   19.3681   20.6361   26.2177 H   0  0  0  0  0  0  0  0  0  0  0  0
   18.2819   19.4032   25.5571 H   0  0  0  0  0  0  0  0  0  0  0  0
   19.6848   18.6852   26.9859 N   0  3  0  0  0  0  0  0  0  0  0  0
   19.6211   17.6997   26.7129 H   0  0  0  0  0  0  0  0  0  0  0  0
   19.0657   18.8136   27.7937 H   0  0  0  0  0  0  0  0  0  0  0  0
   20.6424   18.8477   27.3139 H   0  0  0  0  0  0  0  0  0  0  0  0
  1  2  1  0  0  0  0
  1  3  1  0  0  0  0
  1  4  1  0  0  0  0
  1  5  1  0  0  0  0
  5  6  1  0  0  0  0
  5  7  1  0  0  0  0
  5  8  1  0  0  0  0
  8  9  1  0  0  0  0
  8 10  1  0  0  0  0
  8 11  1  0  0  0  0
 11 12  1  0  0  0  0
 11 13  1  0  0  0  0
 11 14  1  0  0  0  0
 14 15  1  0  0  0  0
 14 16  1  0  0  0  0
 14 17  1  0  0  0  0
 17 18  1  0  0  0  0
 17 19  1  0  0  0  0
 17 20  1  0  0  0  0
 20 21  1  0  0  0  0
 20 22  1  0  0  0  0
 20 23  1  0  0  0  0
 23 24  1  0  0  0  0
 23 25  1  0  0  0  0
 23 26  1  0  0  0  0
M  END
> <VM2 Rank>
59

> <Conf_Id>
1337

> <Probability>
0.48

> <Sum Probability>
90.06

> <Delta G>
1.655

> <G>
49.916

> <E>
17.026

> <-TS>
32.890

> <U+W>
-4.436

> <U>
49.231

> <W>
-53.667

> <W(PB)>
-55.963

> <W(SA)>
2.296

> <Valence>
3.277

> <Coulomb>
45.175

> <VdW>
0.779

> <VdW6>
-7.944

> <VdW12>
8.723

> <Bond>
0.239

> <Angle>
1.155

> <Pdih>
1.883

> <Idih>
0.000

> <Tether>
0.000

$$$$
VeraChem MOL file


 26 25  0  0  0  0  0  0  0  0999 V2000     
   20.9192   20.0876   20.0861 C   0  0  0  0  0  0  0  0  0  0  0  0
   21.9811   20.2524   19.8621 H   0  0  0  0  0  0  0  0  0  0  0  0
   20.4274   19.7576   19.1618 H   0  0  0  0  0  0  0  0  0  0  0  0
   20.4833   21.0513   20.3803 H   0  0  0  0  0  0  0  0  0  0  0  0
   20.7551   19.0397   21.2072 C   0  0  0  0  0  0  0  0  0  0  0  0
   21.2926   19.3863   22.0998 H   0  0  0  0  0  0  0  0  0  0  0  0
   21.2261   18.0966   20.8969 H   0  0  0  0  0  0  0  0  0  0  0  0
   19.2656   18.7933   21.5440 C   0  0  0  0  0  0  0  0  0  0  0  0
   18.8045   19.7266   21.8934 H   0  0  0  0  0  0  0  0  0  0  0  0
   18.7322   18.5213   20.6227 H   0  0  0  0  0  0  0  0  0  0  0  0
   19.0420   17.6674   22.5866 C   0  0  0  0  0  0  0  0  0  0  0  0
   19.4021   16.7177   22.1675 H   0  0  0  0  0  0  0  0  0  0  0  0
   17.9616   17.5373   22.7384 H   0  0  0  0  0  0  0  0  0  0  0  0
   19.7193   17.8931   23.9630 C   0  0  0  0  0  0  0  0  0  0  0  0
   19.4888   17.0329   24.6067 H   0  0  0  0  0  0  0  0  0  0  0  0
   20.8101   17.8962   23.8424 H   0  0  0  0  0  0  0  0  0  0  0  0
   19.2568   19.1898   24.6728 C   0  0  0  0  0  0  0  0  0  0  0  0
   18.1598   19.2084   24.7174 H   0  0  0  0  0  0  0  0  0  0  0  0
   19.5641   20.0722   24.0972 H   0  0  0  0  0  0  0  0  0  0  0  0
   19.8063   19.3074   26.1074 C   0  0  0  0  0  0  0  0  0  0  0  0
   19.3855   20.1961   26.5855 H   0  0  0  0  0  0  0  0  0  0  0  0
   19.5057   18.4322   26.6896 H   0  0  0  0  0  0  0  0  0  0  0  0
   21.3167   19.4207   26.1739 N   0  3  0  0  0  0  0  0  0  0  0  0
   21.6492   19.5084   27.1404 H   0  0  0  0  0  0  0  0  0  0  0  0
   21.6599   20.2409   25.6636 H   0  0  0  0  0  0  0  0  0  0  0  0
   21.7768   18.5981   25.7720 H   0  0  0  0  0  0  0  0  0  0  0  0
  1  2  1  0  0  0  0
  1  3  1  0  0  0  0
  1  4  1  0  0  0  0
  1  5  1  0  0  0  0
  5  6  1  0  0  0  0
  5  7  1  0  0  0  0
  5  8  1  0  0  0  0
  8  9  1  0  0  0  0
  8 10  1  0  0  0  0
  8 11  1  0  0  0  0
 11 12  1  0  0  0  0
 11 13  1  0  0  0  0
 11 14  1  0  0  0  0
 14 15  1  0  0  0  0
 14 16  1  0  0  0  0
 14 17  1  0  0  0  0
 17 18  1  0  0  0  0
 17 19  1  0  0  0  0
 17 20  1  0  0  0  0
 20 21  1  0  0  0  0
 20 22  1  0  0  0  0
 20 23  1  0  0  0  0
 23 24  1  0  0  0  0
 23 25  1  0  0  0  0
 23 26  1  0  0  0  0
M  END
> <VM2 Rank>
60

> <Conf_Id>
281

> <Probability>
0.48

> <Sum Probability>
90.54

> <Delta G>
1.659

> <G>
49.921

> <E>
17.015

> <-TS>
32.905

> <U+W>
-4.447

> <U>
49.678

> <W>
-54.124

> <W(PB)>
-56.393

> <W(SA)>
2.269

> <Valence>
3.238

> <Coulomb>
45.761

> <VdW>
0.679

> <VdW6>
-8.038

> <VdW12>
8.716

> <Bond>
0.234

> <Angle>
1.079

> <Pdih>
1.925

> <Idih>
0.000

> <Tether>
0.000

$$$$
VeraChem MOL file


 26 25  0  0  0  0  0  0  0  0999 V2000     
   18.5626   18.9963   20.4407 C   0  0  0  0  0  0  0  0  0  0  0  0
   18.4643   20.0269   20.8035 H   0  0  0  0  0  0  0  0  0  0  0  0
   18.1831   18.9713   19.4110 H   0  0  0  0  0  0  0  0  0  0  0  0
   17.9168   18.3528   21.0522 H   0  0  0  0  0  0  0  0  0  0  0  0
   20.0308   18.5156   20.4878 C   0  0  0  0  0  0  0  0  0  0  0  0
   20.6603   19.1908   19.8916 H   0  0  0  0  0  0  0  0  0  0  0  0
   20.0965   17.5296   20.0071 H   0  0  0  0  0  0  0  0  0  0  0  0
   20.5941   18.4064   21.9251 C   0  0  0  0  0  0  0  0  0  0  0  0
   19.9716   17.7095   22.5016 H   0  0  0  0  0  0  0  0  0  0  0  0
   21.5969   17.9602   21.8751 H   0  0  0  0  0  0  0  0  0  0  0  0
   20.6828   19.7704   22.6548 C   0  0  0  0  0  0  0  0  0  0  0  0
   19.6774   20.1837   22.8052 H   0  0  0  0  0  0  0  0  0  0  0  0
   21.2127   20.4864   22.0117 H   0  0  0  0  0  0  0  0  0  0  0  0
   21.4223   19.6947   24.0156 C   0  0  0  0  0  0  0  0  0  0  0  0
   22.4633   19.3883   23.8437 H   0  0  0  0  0  0  0  0  0  0  0  0
   21.4720   20.7044   24.4463 H   0  0  0  0  0  0  0  0  0  0  0  0
   20.7812   18.7384   25.0519 C   0  0  0  0  0  0  0  0  0  0  0  0
   21.3641   18.7817   25.9816 H   0  0  0  0  0  0  0  0  0  0  0  0
   20.8455   17.7019   24.6970 H   0  0  0  0  0  0  0  0  0  0  0  0
   19.3141   19.0911   25.3603 C   0  0  0  0  0  0  0  0  0  0  0  0
   19.2519   20.1201   25.7245 H   0  0  0  0  0  0  0  0  0  0  0  0
   18.7163   19.0112   24.4486 H   0  0  0  0  0  0  0  0  0  0  0  0
   18.6931   18.1862   26.4046 N   0  3  0  0  0  0  0  0  0  0  0  0
   17.7170   18.4378   26.5949 H   0  0  0  0  0  0  0  0  0  0  0  0
   19.1932   18.2351   27.2983 H   0  0  0  0  0  0  0  0  0  0  0  0
   18.6965   17.2042   26.1102 H   0  0  0  0  0  0  0  0  0  0  0  0
  1  2  1  0  0  0  0
  1  3  1  0  0  0  0
  1  4  1  0  0  0  0
  1  5  1  0  0  0  0
  5  6  1  0  0  0  0
  5  7  1  0  0  0  0
  5  8  1  0  0  0  0
  8  9  1  0  0  0  0
  8 10  1  0  0  0  0
  8 11  1  0  0  0  0
 11 12  1  0  0  0  0
 11 13  1  0  0  0  0
 11 14  1  0  0  0  0
 14 15  1  0  0  0  0
 14 16  1  0  0  0  0
 14 17  1  0  0  0  0
 17 18  1  0  0  0  0
 17 19  1  0  0  0  0
 17 20  1  0  0  0  0
 20 21  1  0  0  0  0
 20 22  1  0  0  0  0
 20 23  1  0  0  0  0
 23 24  1  0  0  0  0
 23 25  1  0  0  0  0
 23 26  1  0  0  0  0
M  END
> <VM2 Rank>
61

> <Conf_Id>
1003

> <Probability>
0.47

> <Sum Probability>
91.01

> <Delta G>
1.665

> <G>
49.926

> <E>
17.106

> <-TS>
32.820

> <U+W>
-4.356

> <U>
49.567

> <W>
-53.923

> <W(PB)>
-56.210

> <W(SA)>
2.287

> <Valence>
3.381

> <Coulomb>
45.516

> <VdW>
0.670

> <VdW6>
-8.071

> <VdW12>
8.741

> <Bond>
0.231

> <Angle>
1.069

> <Pdih>
2.080

> <Idih>
0.000

> <Tether>
0.000

$$$$
VeraChem MOL file


 26 25  0  0  0  0  0  0  0  0999 V2000     
   19.9451   19.6218   19.4851 C   0  0  0  0  0  0  0  0  0  0  0  0
   20.4275   20.5939   19.6501 H   0  0  0  0  0  0  0  0  0  0  0  0
   20.0293   19.3826   18.4171 H   0  0  0  0  0  0  0  0  0  0  0  0
   18.8776   19.7235   19.7158 H   0  0  0  0  0  0  0  0  0  0  0  0
   20.6100   18.5189   20.3398 C   0  0  0  0  0  0  0  0  0  0  0  0
   21.6384   18.3685   19.9826 H   0  0  0  0  0  0  0  0  0  0  0  0
   20.0882   17.5644   20.1837 H   0  0  0  0  0  0  0  0  0  0  0  0
   20.6546   18.8505   21.8513 C   0  0  0  0  0  0  0  0  0  0  0  0
   21.2591   18.0813   22.3488 H   0  0  0  0  0  0  0  0  0  0  0  0
   21.1799   19.8036   22.0020 H   0  0  0  0  0  0  0  0  0  0  0  0
   19.2531   18.9151   22.5101 C   0  0  0  0  0  0  0  0  0  0  0  0
   18.7280   17.9618   22.3598 H   0  0  0  0  0  0  0  0  0  0  0  0
   18.6494   19.6826   22.0092 H   0  0  0  0  0  0  0  0  0  0  0  0
   19.2958   19.2517   24.0212 C   0  0  0  0  0  0  0  0  0  0  0  0
   19.8164   20.2079   24.1649 H   0  0  0  0  0  0  0  0  0  0  0  0
   18.2655   19.4042   24.3719 H   0  0  0  0  0  0  0  0  0  0  0  0
   19.9598   18.1490   24.8834 C   0  0  0  0  0  0  0  0  0  0  0  0
   21.0233   18.0515   24.6319 H   0  0  0  0  0  0  0  0  0  0  0  0
   19.4924   17.1809   24.6598 H   0  0  0  0  0  0  0  0  0  0  0  0
   19.8237   18.4187   26.3943 C   0  0  0  0  0  0  0  0  0  0  0  0
   18.7669   18.5144   26.6575 H   0  0  0  0  0  0  0  0  0  0  0  0
   20.2392   17.5753   26.9526 H   0  0  0  0  0  0  0  0  0  0  0  0
   20.5388   19.6734   26.8558 N   0  3  0  0  0  0  0  0  0  0  0  0
   20.4384   19.8191   27.8662 H   0  0  0  0  0  0  0  0  0  0  0  0
   20.1713   20.5110   26.3939 H   0  0  0  0  0  0  0  0  0  0  0  0
   21.5438   19.6338   26.6573 H   0  0  0  0  0  0  0  0  0  0  0  0
  1  2  1  0  0  0  0
  1  3  1  0  0  0  0
  1  4  1  0  0  0  0
  1  5  1  0  0  0  0
  5  6  1  0  0  0  0
  5  7  1  0  0  0  0
  5  8  1  0  0  0  0
  8  9  1  0  0  0  0
  8 10  1  0  0  0  0
  8 11  1  0  0  0  0
 11 12  1  0  0  0  0
 11 13  1  0  0  0  0
 11 14  1  0  0  0  0
 14 15  1  0  0  0  0
 14 16  1  0  0  0  0
 14 17  1  0  0  0  0
 17 18  1  0  0  0  0
 17 19  1  0  0  0  0
 17 20  1  0  0  0  0
 20 21  1  0  0  0  0
 20 22  1  0  0  0  0
 20 23  1  0  0  0  0
 23 24  1  0  0  0  0
 23 25  1  0  0  0  0
 23 26  1  0  0  0  0
M  END
> <VM2 Rank>
62

> <Conf_Id>
838

> <Probability>
0.47

> <Sum Probability>
91.48

> <Delta G>
1.667

> <G>
49.928

> <E>
17.303

> <-TS>
32.625

> <U+W>
-4.159

> <U>
49.401

> <W>
-53.560

> <W(PB)>
-55.885

> <W(SA)>
2.325

> <Valence>
3.370

> <Coulomb>
45.066

> <VdW>
0.965

> <VdW6>
-7.528

> <VdW12>
8.494

> <Bond>
0.232

> <Angle>
0.963

> <Pdih>
2.174

> <Idih>
0.000

> <Tether>
0.000

$$$$
VeraChem MOL file


 26 25  0  0  0  0  0  0  0  0999 V2000     
   20.1415   19.5438   19.2874 C   0  0  0  0  0  0  0  0  0  0  0  0
   19.1554   19.2953   18.8736 H   0  0  0  0  0  0  0  0  0  0  0  0
   20.2037   20.6349   19.3914 H   0  0  0  0  0  0  0  0  0  0  0  0
   20.9008   19.2307   18.5591 H   0  0  0  0  0  0  0  0  0  0  0  0
   20.3668   18.8439   20.6445 C   0  0  0  0  0  0  0  0  0  0  0  0
   21.3763   19.0829   21.0041 H   0  0  0  0  0  0  0  0  0  0  0  0
   20.3278   17.7547   20.5032 H   0  0  0  0  0  0  0  0  0  0  0  0
   19.3100   19.2735   21.6896 C   0  0  0  0  0  0  0  0  0  0  0  0
   19.3867   20.3543   21.8717 H   0  0  0  0  0  0  0  0  0  0  0  0
   18.3079   19.1022   21.2726 H   0  0  0  0  0  0  0  0  0  0  0  0
   19.4171   18.5110   23.0332 C   0  0  0  0  0  0  0  0  0  0  0  0
   19.3371   17.4307   22.8496 H   0  0  0  0  0  0  0  0  0  0  0  0
   18.5496   18.7841   23.6481 H   0  0  0  0  0  0  0  0  0  0  0  0
   20.7213   18.8134   23.8144 C   0  0  0  0  0  0  0  0  0  0  0  0
   21.5888   18.5136   23.2126 H   0  0  0  0  0  0  0  0  0  0  0  0
   20.8176   19.8958   23.9720 H   0  0  0  0  0  0  0  0  0  0  0  0
   20.8031   18.0731   25.1733 C   0  0  0  0  0  0  0  0  0  0  0  0
   21.7720   18.2868   25.6439 H   0  0  0  0  0  0  0  0  0  0  0  0
   20.7815   16.9895   24.9968 H   0  0  0  0  0  0  0  0  0  0  0  0
   19.6746   18.4364   26.1599 C   0  0  0  0  0  0  0  0  0  0  0  0
   18.7052   18.1801   25.7250 H   0  0  0  0  0  0  0  0  0  0  0  0
   19.7968   17.8577   27.0794 H   0  0  0  0  0  0  0  0  0  0  0  0
   19.6467   19.9039   26.5388 N   0  3  0  0  0  0  0  0  0  0  0  0
   19.5026   20.5023   25.7195 H   0  0  0  0  0  0  0  0  0  0  0  0
   20.5234   20.1994   26.9804 H   0  0  0  0  0  0  0  0  0  0  0  0
   18.8919   20.1123   27.2014 H   0  0  0  0  0  0  0  0  0  0  0  0
  1  2  1  0  0  0  0
  1  3  1  0  0  0  0
  1  4  1  0  0  0  0
  1  5  1  0  0  0  0
  5  6  1  0  0  0  0
  5  7  1  0  0  0  0
  5  8  1  0  0  0  0
  8  9  1  0  0  0  0
  8 10  1  0  0  0  0
  8 11  1  0  0  0  0
 11 12  1  0  0  0  0
 11 13  1  0  0  0  0
 11 14  1  0  0  0  0
 14 15  1  0  0  0  0
 14 16  1  0  0  0  0
 14 17  1  0  0  0  0
 17 18  1  0  0  0  0
 17 19  1  0  0  0  0
 17 20  1  0  0  0  0
 20 21  1  0  0  0  0
 20 22  1  0  0  0  0
 20 23  1  0  0  0  0
 23 24  1  0  0  0  0
 23 25  1  0  0  0  0
 23 26  1  0  0  0  0
M  END
> <VM2 Rank>
63

> <Conf_Id>
243

> <Probability>
0.47

> <Sum Probability>
91.95

> <Delta G>
1.674

> <G>
49.935

> <E>
17.227

> <-TS>
32.708

> <U+W>
-4.235

> <U>
49.425

> <W>
-53.659

> <W(PB)>
-55.946

> <W(SA)>
2.286

> <Valence>
3.135

> <Coulomb>
45.468

> <VdW>
0.822

> <VdW6>
-7.705

> <VdW12>
8.527

> <Bond>
0.222

> <Angle>
0.941

> <Pdih>
1.972

> <Idih>
0.000

> <Tether>
0.000

$$$$
VeraChem MOL file


 26 25  0  0  0  0  0  0  0  0999 V2000     
   20.3469   18.2641   19.4852 C   0  0  0  0  0  0  0  0  0  0  0  0
   19.3733   18.5594   19.0727 H   0  0  0  0  0  0  0  0  0  0  0  0
   21.1125   18.9289   19.0642 H   0  0  0  0  0  0  0  0  0  0  0  0
   20.5624   17.2435   19.1433 H   0  0  0  0  0  0  0  0  0  0  0  0
   20.3393   18.3321   21.0271 C   0  0  0  0  0  0  0  0  0  0  0  0
   21.3153   18.0036   21.4106 H   0  0  0  0  0  0  0  0  0  0  0  0
   19.5913   17.6257   21.4107 H   0  0  0  0  0  0  0  0  0  0  0  0
   20.0333   19.7617   21.5329 C   0  0  0  0  0  0  0  0  0  0  0  0
   20.7457   20.4622   21.0756 H   0  0  0  0  0  0  0  0  0  0  0  0
   19.0357   20.0703   21.1909 H   0  0  0  0  0  0  0  0  0  0  0  0
   20.1226   19.9062   23.0719 C   0  0  0  0  0  0  0  0  0  0  0  0
   20.0064   20.9682   23.3286 H   0  0  0  0  0  0  0  0  0  0  0  0
   21.1285   19.6164   23.4038 H   0  0  0  0  0  0  0  0  0  0  0  0
   19.0510   19.0843   23.8318 C   0  0  0  0  0  0  0  0  0  0  0  0
   18.0592   19.3178   23.4207 H   0  0  0  0  0  0  0  0  0  0  0  0
   19.2069   18.0111   23.6648 H   0  0  0  0  0  0  0  0  0  0  0  0
   19.0339   19.3723   25.3539 C   0  0  0  0  0  0  0  0  0  0  0  0
   18.2327   18.7878   25.8254 H   0  0  0  0  0  0  0  0  0  0  0  0
   18.7807   20.4278   25.5200 H   0  0  0  0  0  0  0  0  0  0  0  0
   20.3680   19.0662   26.0645 C   0  0  0  0  0  0  0  0  0  0  0  0
   21.1656   19.6758   25.6320 H   0  0  0  0  0  0  0  0  0  0  0  0
   20.2820   19.3222   27.1240 H   0  0  0  0  0  0  0  0  0  0  0  0
   20.7860   17.6120   25.9736 N   0  3  0  0  0  0  0  0  0  0  0  0
   20.9139   17.3164   25.0009 H   0  0  0  0  0  0  0  0  0  0  0  0
   20.0873   16.9888   26.3913 H   0  0  0  0  0  0  0  0  0  0  0  0
   21.6718   17.4389   26.4610 H   0  0  0  0  0  0  0  0  0  0  0  0
  1  2  1  0  0  0  0
  1  3  1  0  0  0  0
  1  4  1  0  0  0  0
  1  5  1  0  0  0  0
  5  6  1  0  0  0  0
  5  7  1  0  0  0  0
  5  8  1  0  0  0  0
  8  9  1  0  0  0  0
  8 10  1  0  0  0  0
  8 11  1  0  0  0  0
 11 12  1  0  0  0  0
 11 13  1  0  0  0  0
 11 14  1  0  0  0  0
 14 15  1  0  0  0  0
 14 16  1  0  0  0  0
 14 17  1  0  0  0  0
 17 18  1  0  0  0  0
 17 19  1  0  0  0  0
 17 20  1  0  0  0  0
 20 21  1  0  0  0  0
 20 22  1  0  0  0  0
 20 23  1  0  0  0  0
 23 24  1  0  0  0  0
 23 25  1  0  0  0  0
 23 26  1  0  0  0  0
M  END
> <VM2 Rank>
64

> <Conf_Id>
251

> <Probability>
0.45

> <Sum Probability>
92.40

> <Delta G>
1.696

> <G>
49.957

> <E>
17.206

> <-TS>
32.751

> <U+W>
-4.256

> <U>
49.692

> <W>
-53.947

> <W(PB)>
-56.227

> <W(SA)>
2.279

> <Valence>
3.067

> <Coulomb>
45.912

> <VdW>
0.712

> <VdW6>
-7.811

> <VdW12>
8.523

> <Bond>
0.215

> <Angle>
0.854

> <Pdih>
1.997

> <Idih>
0.000

> <Tether>
0.000

$$$$
VeraChem MOL file


 26 25  0  0  0  0  0  0  0  0999 V2000     
   18.8829   18.4739   19.9568 C   0  0  0  0  0  0  0  0  0  0  0  0
   18.7273   19.4063   19.3986 H   0  0  0  0  0  0  0  0  0  0  0  0
   19.0643   17.6721   19.2293 H   0  0  0  0  0  0  0  0  0  0  0  0
   17.9550   18.2380   20.4941 H   0  0  0  0  0  0  0  0  0  0  0  0
   20.0712   18.6029   20.9331 C   0  0  0  0  0  0  0  0  0  0  0  0
   20.9892   18.8087   20.3652 H   0  0  0  0  0  0  0  0  0  0  0  0
   20.2205   17.6414   21.4422 H   0  0  0  0  0  0  0  0  0  0  0  0
   19.8371   19.7254   21.9711 C   0  0  0  0  0  0  0  0  0  0  0  0
   19.6248   20.6634   21.4397 H   0  0  0  0  0  0  0  0  0  0  0  0
   18.9383   19.5040   22.5616 H   0  0  0  0  0  0  0  0  0  0  0  0
   21.0466   19.9608   22.9123 C   0  0  0  0  0  0  0  0  0  0  0  0
   20.8190   20.8056   23.5763 H   0  0  0  0  0  0  0  0  0  0  0  0
   21.9074   20.2832   22.3103 H   0  0  0  0  0  0  0  0  0  0  0  0
   21.4701   18.7356   23.7667 C   0  0  0  0  0  0  0  0  0  0  0  0
   21.8661   17.9487   23.1110 H   0  0  0  0  0  0  0  0  0  0  0  0
   22.3089   19.0321   24.4116 H   0  0  0  0  0  0  0  0  0  0  0  0
   20.3464   18.1404   24.6509 C   0  0  0  0  0  0  0  0  0  0  0  0
   20.7550   17.2972   25.2235 H   0  0  0  0  0  0  0  0  0  0  0  0
   19.5504   17.7265   24.0187 H   0  0  0  0  0  0  0  0  0  0  0  0
   19.7507   19.1712   25.6276 C   0  0  0  0  0  0  0  0  0  0  0  0
   20.5420   19.5724   26.2666 H   0  0  0  0  0  0  0  0  0  0  0  0
   19.3086   19.9984   25.0662 H   0  0  0  0  0  0  0  0  0  0  0  0
   18.6760   18.5888   26.5225 N   0  3  0  0  0  0  0  0  0  0  0  0
   19.0346   17.8214   27.1000 H   0  0  0  0  0  0  0  0  0  0  0  0
   17.8882   18.2172   25.9818 H   0  0  0  0  0  0  0  0  0  0  0  0
   18.2929   19.2913   27.1644 H   0  0  0  0  0  0  0  0  0  0  0  0
  1  2  1  0  0  0  0
  1  3  1  0  0  0  0
  1  4  1  0  0  0  0
  1  5  1  0  0  0  0
  5  6  1  0  0  0  0
  5  7  1  0  0  0  0
  5  8  1  0  0  0  0
  8  9  1  0  0  0  0
  8 10  1  0  0  0  0
  8 11  1  0  0  0  0
 11 12  1  0  0  0  0
 11 13  1  0  0  0  0
 11 14  1  0  0  0  0
 14 15  1  0  0  0  0
 14 16  1  0  0  0  0
 14 17  1  0  0  0  0
 17 18  1  0  0  0  0
 17 19  1  0  0  0  0
 17 20  1  0  0  0  0
 20 21  1  0  0  0  0
 20 22  1  0  0  0  0
 20 23  1  0  0  0  0
 23 24  1  0  0  0  0
 23 25  1  0  0  0  0
 23 26  1  0  0  0  0
M  END
> <VM2 Rank>
65

> <Conf_Id>
446

> <Probability>
0.44

> <Sum Probability>
92.84

> <Delta G>
1.701

> <G>
49.963

> <E>
16.925

> <-TS>
33.038

> <U+W>
-4.537

> <U>
49.453

> <W>
-53.990

> <W(PB)>
-56.277

> <W(SA)>
2.286

> <Valence>
3.376

> <Coulomb>
45.559

> <VdW>
0.518

> <VdW6>
-8.348

> <VdW12>
8.866

> <Bond>
0.240

> <Angle>
1.237

> <Pdih>
1.900

> <Idih>
0.000

> <Tether>
0.000

$$$$
VeraChem MOL file


 26 25  0  0  0  0  0  0  0  0999 V2000     
   18.7346   18.6465   20.0129 C   0  0  0  0  0  0  0  0  0  0  0  0
   19.2740   18.9965   19.1231 H   0  0  0  0  0  0  0  0  0  0  0  0
   18.1768   17.7430   19.7347 H   0  0  0  0  0  0  0  0  0  0  0  0
   18.0069   19.4178   20.2971 H   0  0  0  0  0  0  0  0  0  0  0  0
   19.7092   18.3499   21.1723 C   0  0  0  0  0  0  0  0  0  0  0  0
   20.4050   17.5550   20.8696 H   0  0  0  0  0  0  0  0  0  0  0  0
   19.1382   17.9655   22.0277 H   0  0  0  0  0  0  0  0  0  0  0  0
   20.5046   19.6106   21.5854 C   0  0  0  0  0  0  0  0  0  0  0  0
   21.0068   20.0215   20.6987 H   0  0  0  0  0  0  0  0  0  0  0  0
   19.8121   20.3912   21.9270 H   0  0  0  0  0  0  0  0  0  0  0  0
   21.5781   19.3402   22.6713 C   0  0  0  0  0  0  0  0  0  0  0  0
   22.1146   20.2767   22.8773 H   0  0  0  0  0  0  0  0  0  0  0  0
   22.3285   18.6480   22.2653 H   0  0  0  0  0  0  0  0  0  0  0  0
   21.0407   18.7647   24.0072 C   0  0  0  0  0  0  0  0  0  0  0  0
   20.6152   17.7678   23.8358 H   0  0  0  0  0  0  0  0  0  0  0  0
   21.8914   18.6177   24.6870 H   0  0  0  0  0  0  0  0  0  0  0  0
   19.9982   19.6788   24.6976 C   0  0  0  0  0  0  0  0  0  0  0  0
   19.0938   19.7619   24.0815 H   0  0  0  0  0  0  0  0  0  0  0  0
   20.4096   20.6925   24.7925 H   0  0  0  0  0  0  0  0  0  0  0  0
   19.6077   19.1766   26.1007 C   0  0  0  0  0  0  0  0  0  0  0  0
   20.5025   19.0902   26.7230 H   0  0  0  0  0  0  0  0  0  0  0  0
   18.9342   19.8986   26.5703 H   0  0  0  0  0  0  0  0  0  0  0  0
   18.9080   17.8316   26.0937 N   0  3  0  0  0  0  0  0  0  0  0  0
   18.6519   17.5312   27.0405 H   0  0  0  0  0  0  0  0  0  0  0  0
   19.5019   17.0972   25.6964 H   0  0  0  0  0  0  0  0  0  0  0  0
   18.0437   17.8549   25.5430 H   0  0  0  0  0  0  0  0  0  0  0  0
  1  2  1  0  0  0  0
  1  3  1  0  0  0  0
  1  4  1  0  0  0  0
  1  5  1  0  0  0  0
  5  6  1  0  0  0  0
  5  7  1  0  0  0  0
  5  8  1  0  0  0  0
  8  9  1  0  0  0  0
  8 10  1  0  0  0  0
  8 11  1  0  0  0  0
 11 12  1  0  0  0  0
 11 13  1  0  0  0  0
 11 14  1  0  0  0  0
 14 15  1  0  0  0  0
 14 16  1  0  0  0  0
 14 17  1  0  0  0  0
 17 18  1  0  0  0  0
 17 19  1  0  0  0  0
 17 20  1  0  0  0  0
 20 21  1  0  0  0  0
 20 22  1  0  0  0  0
 20 23  1  0  0  0  0
 23 24  1  0  0  0  0
 23 25  1  0  0  0  0
 23 26  1  0  0  0  0
M  END
> <VM2 Rank>
66

> <Conf_Id>
1355

> <Probability>
0.43

> <Sum Probability>
93.28

> <Delta G>
1.715

> <G>
49.977

> <E>
17.071

> <-TS>
32.905

> <U+W>
-4.391

> <U>
49.677

> <W>
-54.068

> <W(PB)>
-56.333

> <W(SA)>
2.265

> <Valence>
3.238

> <Coulomb>
45.761

> <VdW>
0.679

> <VdW6>
-8.038

> <VdW12>
8.717

> <Bond>
0.233

> <Angle>
1.079

> <Pdih>
1.925

> <Idih>
0.000

> <Tether>
0.000

$$$$
VeraChem MOL file


 26 25  0  0  0  0  0  0  0  0999 V2000     
   20.6608   18.4708   19.4956 C   0  0  0  0  0  0  0  0  0  0  0  0
   21.5283   17.8792   19.1754 H   0  0  0  0  0  0  0  0  0  0  0  0
   19.7683   18.0446   19.0192 H   0  0  0  0  0  0  0  0  0  0  0  0
   20.7934   19.4939   19.1202 H   0  0  0  0  0  0  0  0  0  0  0  0
   20.5296   18.4573   21.0334 C   0  0  0  0  0  0  0  0  0  0  0  0
   21.4552   18.8520   21.4729 H   0  0  0  0  0  0  0  0  0  0  0  0
   20.4280   17.4197   21.3808 H   0  0  0  0  0  0  0  0  0  0  0  0
   19.3149   19.2889   21.5090 C   0  0  0  0  0  0  0  0  0  0  0  0
   19.4412   20.3371   21.2045 H   0  0  0  0  0  0  0  0  0  0  0  0
   18.4123   18.9266   20.9978 H   0  0  0  0  0  0  0  0  0  0  0  0
   19.0754   19.2170   23.0370 C   0  0  0  0  0  0  0  0  0  0  0  0
   18.9291   18.1689   23.3304 H   0  0  0  0  0  0  0  0  0  0  0  0
   18.1347   19.7364   23.2661 H   0  0  0  0  0  0  0  0  0  0  0  0
   20.2171   19.8517   23.8707 C   0  0  0  0  0  0  0  0  0  0  0  0
   21.1482   19.2887   23.7296 H   0  0  0  0  0  0  0  0  0  0  0  0
   20.4131   20.8670   23.4992 H   0  0  0  0  0  0  0  0  0  0  0  0
   19.8887   19.9348   25.3825 C   0  0  0  0  0  0  0  0  0  0  0  0
   19.0121   20.5801   25.5277 H   0  0  0  0  0  0  0  0  0  0  0  0
   20.7192   20.4242   25.9084 H   0  0  0  0  0  0  0  0  0  0  0  0
   19.6103   18.5675   26.0393 C   0  0  0  0  0  0  0  0  0  0  0  0
   19.3599   18.7155   27.0933 H   0  0  0  0  0  0  0  0  0  0  0  0
   18.7564   18.0902   25.5517 H   0  0  0  0  0  0  0  0  0  0  0  0
   20.7843   17.6109   25.9736 N   0  3  0  0  0  0  0  0  0  0  0  0
   21.0504   17.4062   25.0055 H   0  0  0  0  0  0  0  0  0  0  0  0
   20.5710   16.7145   26.4244 H   0  0  0  0  0  0  0  0  0  0  0  0
   21.6123   17.9925   26.4423 H   0  0  0  0  0  0  0  0  0  0  0  0
  1  2  1  0  0  0  0
  1  3  1  0  0  0  0
  1  4  1  0  0  0  0
  1  5  1  0  0  0  0
  5  6  1  0  0  0  0
  5  7  1  0  0  0  0
  5  8  1  0  0  0  0
  8  9  1  0  0  0  0
  8 10  1  0  0  0  0
  8 11  1  0  0  0  0
 11 12  1  0  0  0  0
 11 13  1  0  0  0  0
 11 14  1  0  0  0  0
 14 15  1  0  0  0  0
 14 16  1  0  0  0  0
 14 17  1  0  0  0  0
 17 18  1  0  0  0  0
 17 19  1  0  0  0  0
 17 20  1  0  0  0  0
 20 21  1  0  0  0  0
 20 22  1  0  0  0  0
 20 23  1  0  0  0  0
 23 24  1  0  0  0  0
 23 25  1  0  0  0  0
 23 26  1  0  0  0  0
M  END
> <VM2 Rank>
67

> <Conf_Id>
1371

> <Probability>
0.43

> <Sum Probability>
93.71

> <Delta G>
1.716

> <G>
49.977

> <E>
17.226

> <-TS>
32.751

> <U+W>
-4.236

> <U>
49.691

> <W>
-53.927

> <W(PB)>
-56.221

> <W(SA)>
2.294

> <Valence>
3.067

> <Coulomb>
45.912

> <VdW>
0.712

> <VdW6>
-7.810

> <VdW12>
8.522

> <Bond>
0.215

> <Angle>
0.855

> <Pdih>
1.997

> <Idih>
0.000

> <Tether>
0.000

$$$$
VeraChem MOL file


 26 25  0  0  0  0  0  0  0  0999 V2000     
   19.2520   20.2704   20.6299 C   0  0  0  0  0  0  0  0  0  0  0  0
   18.9775   20.5171   21.6631 H   0  0  0  0  0  0  0  0  0  0  0  0
   20.0585   20.9462   20.3169 H   0  0  0  0  0  0  0  0  0  0  0  0
   18.3780   20.4747   19.9981 H   0  0  0  0  0  0  0  0  0  0  0  0
   19.6830   18.7923   20.4963 C   0  0  0  0  0  0  0  0  0  0  0  0
   19.8311   18.5619   19.4320 H   0  0  0  0  0  0  0  0  0  0  0  0
   18.8691   18.1371   20.8346 H   0  0  0  0  0  0  0  0  0  0  0  0
   20.9907   18.4598   21.2592 C   0  0  0  0  0  0  0  0  0  0  0  0
   21.2416   17.4039   21.0882 H   0  0  0  0  0  0  0  0  0  0  0  0
   21.8147   19.0391   20.8204 H   0  0  0  0  0  0  0  0  0  0  0  0
   20.9521   18.7282   22.7858 C   0  0  0  0  0  0  0  0  0  0  0  0
   20.8179   19.8023   22.9670 H   0  0  0  0  0  0  0  0  0  0  0  0
   21.9338   18.4705   23.2065 H   0  0  0  0  0  0  0  0  0  0  0  0
   19.8578   17.9189   23.5263 C   0  0  0  0  0  0  0  0  0  0  0  0
   18.8618   18.2331   23.1867 H   0  0  0  0  0  0  0  0  0  0  0  0
   19.9562   16.8560   23.2663 H   0  0  0  0  0  0  0  0  0  0  0  0
   19.9356   18.0646   25.0640 C   0  0  0  0  0  0  0  0  0  0  0  0
   20.9172   17.7228   25.4184 H   0  0  0  0  0  0  0  0  0  0  0  0
   19.1880   17.4041   25.5232 H   0  0  0  0  0  0  0  0  0  0  0  0
   19.6887   19.5098   25.5359 C   0  0  0  0  0  0  0  0  0  0  0  0
   20.4528   20.1709   25.1189 H   0  0  0  0  0  0  0  0  0  0  0  0
   18.7104   19.8492   25.1849 H   0  0  0  0  0  0  0  0  0  0  0  0
   19.7211   19.6549   27.0436 N   0  3  0  0  0  0  0  0  0  0  0  0
   19.0055   19.0784   27.4983 H   0  0  0  0  0  0  0  0  0  0  0  0
   19.5547   20.6237   27.3369 H   0  0  0  0  0  0  0  0  0  0  0  0
   20.6268   19.3759   27.4348 H   0  0  0  0  0  0  0  0  0  0  0  0
  1  2  1  0  0  0  0
  1  3  1  0  0  0  0
  1  4  1  0  0  0  0
  1  5  1  0  0  0  0
  5  6  1  0  0  0  0
  5  7  1  0  0  0  0
  5  8  1  0  0  0  0
  8  9  1  0  0  0  0
  8 10  1  0  0  0  0
  8 11  1  0  0  0  0
 11 12  1  0  0  0  0
 11 13  1  0  0  0  0
 11 14  1  0  0  0  0
 14 15  1  0  0  0  0
 14 16  1  0  0  0  0
 14 17  1  0  0  0  0
 17 18  1  0  0  0  0
 17 19  1  0  0  0  0
 17 20  1  0  0  0  0
 20 21  1  0  0  0  0
 20 22  1  0  0  0  0
 20 23  1  0  0  0  0
 23 24  1  0  0  0  0
 23 25  1  0  0  0  0
 23 26  1  0  0  0  0
M  END
> <VM2 Rank>
68

> <Conf_Id>
550

> <Probability>
0.43

> <Sum Probability>
94.14

> <Delta G>
1.716

> <G>
49.977

> <E>
17.089

> <-TS>
32.888

> <U+W>
-4.373

> <U>
49.255

> <W>
-53.628

> <W(PB)>
-55.892

> <W(SA)>
2.264

> <Valence>
3.394

> <Coulomb>
45.181

> <VdW>
0.680

> <VdW6>
-8.024

> <VdW12>
8.704

> <Bond>
0.231

> <Angle>
1.123

> <Pdih>
2.041

> <Idih>
0.000

> <Tether>
0.000

$$$$
VeraChem MOL file


 26 25  0  0  0  0  0  0  0  0999 V2000     
   21.0217   19.8855   20.0284 C   0  0  0  0  0  0  0  0  0  0  0  0
   21.7210   19.4256   19.3181 H   0  0  0  0  0  0  0  0  0  0  0  0
   20.2520   20.4126   19.4496 H   0  0  0  0  0  0  0  0  0  0  0  0
   21.5771   20.6287   20.6152 H   0  0  0  0  0  0  0  0  0  0  0  0
   20.3918   18.8145   20.9439 C   0  0  0  0  0  0  0  0  0  0  0  0
   21.1930   18.2833   21.4747 H   0  0  0  0  0  0  0  0  0  0  0  0
   19.8693   18.0695   20.3278 H   0  0  0  0  0  0  0  0  0  0  0  0
   19.4039   19.4395   21.9566 C   0  0  0  0  0  0  0  0  0  0  0  0
   19.9321   20.1601   22.5948 H   0  0  0  0  0  0  0  0  0  0  0  0
   18.6500   20.0200   21.4071 H   0  0  0  0  0  0  0  0  0  0  0  0
   18.6697   18.3920   22.8328 C   0  0  0  0  0  0  0  0  0  0  0  0
   18.0640   17.7465   22.1818 H   0  0  0  0  0  0  0  0  0  0  0  0
   17.9518   18.9132   23.4804 H   0  0  0  0  0  0  0  0  0  0  0  0
   19.5896   17.4944   23.7039 C   0  0  0  0  0  0  0  0  0  0  0  0
   18.9584   16.8207   24.2996 H   0  0  0  0  0  0  0  0  0  0  0  0
   20.1879   16.8411   23.0549 H   0  0  0  0  0  0  0  0  0  0  0  0
   20.5359   18.2655   24.6572 C   0  0  0  0  0  0  0  0  0  0  0  0
   21.2575   18.8534   24.0757 H   0  0  0  0  0  0  0  0  0  0  0  0
   21.1238   17.5407   25.2358 H   0  0  0  0  0  0  0  0  0  0  0  0
   19.7768   19.1884   25.6284 C   0  0  0  0  0  0  0  0  0  0  0  0
   19.2163   19.9375   25.0631 H   0  0  0  0  0  0  0  0  0  0  0  0
   19.0683   18.5997   26.2173 H   0  0  0  0  0  0  0  0  0  0  0  0
   20.6916   19.9192   26.5899 N   0  3  0  0  0  0  0  0  0  0  0  0
   21.2293   19.2698   27.1733 H   0  0  0  0  0  0  0  0  0  0  0  0
   20.1664   20.5278   27.2271 H   0  0  0  0  0  0  0  0  0  0  0  0
   21.3670   20.5133   26.0981 H   0  0  0  0  0  0  0  0  0  0  0  0
  1  2  1  0  0  0  0
  1  3  1  0  0  0  0
  1  4  1  0  0  0  0
  1  5  1  0  0  0  0
  5  6  1  0  0  0  0
  5  7  1  0  0  0  0
  5  8  1  0  0  0  0
  8  9  1  0  0  0  0
  8 10  1  0  0  0  0
  8 11  1  0  0  0  0
 11 12  1  0  0  0  0
 11 13  1  0  0  0  0
 11 14  1  0  0  0  0
 14 15  1  0  0  0  0
 14 16  1  0  0  0  0
 14 17  1  0  0  0  0
 17 18  1  0  0  0  0
 17 19  1  0  0  0  0
 17 20  1  0  0  0  0
 20 21  1  0  0  0  0
 20 22  1  0  0  0  0
 20 23  1  0  0  0  0
 23 24  1  0  0  0  0
 23 25  1  0  0  0  0
 23 26  1  0  0  0  0
M  END
> <VM2 Rank>
69

> <Conf_Id>
567

> <Probability>
0.42

> <Sum Probability>
94.56

> <Delta G>
1.737

> <G>
49.998

> <E>
16.961

> <-TS>
33.037

> <U+W>
-4.501

> <U>
49.453

> <W>
-53.954

> <W(PB)>
-56.228

> <W(SA)>
2.274

> <Valence>
3.376

> <Coulomb>
45.559

> <VdW>
0.518

> <VdW6>
-8.348

> <VdW12>
8.866

> <Bond>
0.240

> <Angle>
1.236

> <Pdih>
1.900

> <Idih>
0.000

> <Tether>
0.000

$$$$
VeraChem MOL file


 26 25  0  0  0  0  0  0  0  0999 V2000     
   19.1950   20.2326   20.6278 C   0  0  0  0  0  0  0  0  0  0  0  0
   19.0277   20.5502   21.6645 H   0  0  0  0  0  0  0  0  0  0  0  0
   19.3794   21.1355   20.0313 H   0  0  0  0  0  0  0  0  0  0  0  0
   18.2726   19.7673   20.2568 H   0  0  0  0  0  0  0  0  0  0  0  0
   20.3903   19.2590   20.5199 C   0  0  0  0  0  0  0  0  0  0  0  0
   21.2956   19.7385   20.9156 H   0  0  0  0  0  0  0  0  0  0  0  0
   20.5935   19.0648   19.4575 H   0  0  0  0  0  0  0  0  0  0  0  0
   20.1476   17.9033   21.2311 C   0  0  0  0  0  0  0  0  0  0  0  0
   19.3128   17.3877   20.7368 H   0  0  0  0  0  0  0  0  0  0  0  0
   21.0274   17.2625   21.0811 H   0  0  0  0  0  0  0  0  0  0  0  0
   19.8451   17.9977   22.7488 C   0  0  0  0  0  0  0  0  0  0  0  0
   19.6776   16.9814   23.1313 H   0  0  0  0  0  0  0  0  0  0  0  0
   18.9023   18.5380   22.9029 H   0  0  0  0  0  0  0  0  0  0  0  0
   20.9831   18.6622   23.5639 C   0  0  0  0  0  0  0  0  0  0  0  0
   21.9334   18.1617   23.3322 H   0  0  0  0  0  0  0  0  0  0  0  0
   21.1004   19.7113   23.2615 H   0  0  0  0  0  0  0  0  0  0  0  0
   20.7474   18.6006   25.0911 C   0  0  0  0  0  0  0  0  0  0  0  0
   21.6259   19.0137   25.6045 H   0  0  0  0  0  0  0  0  0  0  0  0
   20.6605   17.5533   25.4098 H   0  0  0  0  0  0  0  0  0  0  0  0
   19.4942   19.3813   25.5295 C   0  0  0  0  0  0  0  0  0  0  0  0
   19.5818   20.4246   25.2142 H   0  0  0  0  0  0  0  0  0  0  0  0
   18.6068   18.9520   25.0574 H   0  0  0  0  0  0  0  0  0  0  0  0
   19.2782   19.3622   27.0289 N   0  3  0  0  0  0  0  0  0  0  0  0
   20.0672   19.7791   27.5339 H   0  0  0  0  0  0  0  0  0  0  0  0
   19.1617   18.4082   27.3860 H   0  0  0  0  0  0  0  0  0  0  0  0
   18.4396   19.8871   27.3000 H   0  0  0  0  0  0  0  0  0  0  0  0
  1  2  1  0  0  0  0
  1  3  1  0  0  0  0
  1  4  1  0  0  0  0
  1  5  1  0  0  0  0
  5  6  1  0  0  0  0
  5  7  1  0  0  0  0
  5  8  1  0  0  0  0
  8  9  1  0  0  0  0
  8 10  1  0  0  0  0
  8 11  1  0  0  0  0
 11 12  1  0  0  0  0
 11 13  1  0  0  0  0
 11 14  1  0  0  0  0
 14 15  1  0  0  0  0
 14 16  1  0  0  0  0
 14 17  1  0  0  0  0
 17 18  1  0  0  0  0
 17 19  1  0  0  0  0
 17 20  1  0  0  0  0
 20 21  1  0  0  0  0
 20 22  1  0  0  0  0
 20 23  1  0  0  0  0
 23 24  1  0  0  0  0
 23 25  1  0  0  0  0
 23 26  1  0  0  0  0
M  END
> <VM2 Rank>
70

> <Conf_Id>
747

> <Probability>
0.41

> <Sum Probability>
94.97

> <Delta G>
1.753

> <G>
50.015

> <E>
17.126

> <-TS>
32.889

> <U+W>
-4.336

> <U>
49.255

> <W>
-53.591

> <W(PB)>
-55.889

> <W(SA)>
2.298

> <Valence>
3.394

> <Coulomb>
45.180

> <VdW>
0.680

> <VdW6>
-8.024

> <VdW12>
8.704

> <Bond>
0.231

> <Angle>
1.123

> <Pdih>
2.041

> <Idih>
0.000

> <Tether>
0.000

$$$$
VeraChem MOL file


 26 25  0  0  0  0  0  0  0  0999 V2000     
   20.9275   18.3409   20.0341 C   0  0  0  0  0  0  0  0  0  0  0  0
   21.3552   17.7945   20.8840 H   0  0  0  0  0  0  0  0  0  0  0  0
   20.8429   17.6359   19.1970 H   0  0  0  0  0  0  0  0  0  0  0  0
   21.6334   19.1285   19.7404 H   0  0  0  0  0  0  0  0  0  0  0  0
   19.5446   18.9363   20.3824 C   0  0  0  0  0  0  0  0  0  0  0  0
   18.8625   18.1335   20.6925 H   0  0  0  0  0  0  0  0  0  0  0  0
   19.1057   19.3667   19.4715 H   0  0  0  0  0  0  0  0  0  0  0  0
   19.6040   20.0402   21.4691 C   0  0  0  0  0  0  0  0  0  0  0  0
   20.1858   20.8874   21.0807 H   0  0  0  0  0  0  0  0  0  0  0  0
   18.5891   20.4255   21.6378 H   0  0  0  0  0  0  0  0  0  0  0  0
   20.2101   19.6048   22.8285 C   0  0  0  0  0  0  0  0  0  0  0  0
   20.2215   20.4818   23.4888 H   0  0  0  0  0  0  0  0  0  0  0  0
   21.2606   19.3150   22.6939 H   0  0  0  0  0  0  0  0  0  0  0  0
   19.4319   18.4523   23.5127 C   0  0  0  0  0  0  0  0  0  0  0  0
   18.3771   18.7359   23.6319 H   0  0  0  0  0  0  0  0  0  0  0  0
   19.4457   17.5651   22.8663 H   0  0  0  0  0  0  0  0  0  0  0  0
   20.0190   18.0566   24.8881 C   0  0  0  0  0  0  0  0  0  0  0  0
   21.0710   17.7643   24.7700 H   0  0  0  0  0  0  0  0  0  0  0  0
   19.4866   17.1712   25.2602 H   0  0  0  0  0  0  0  0  0  0  0  0
   19.9077   19.1839   25.9318 C   0  0  0  0  0  0  0  0  0  0  0  0
   20.4732   20.0570   25.5966 H   0  0  0  0  0  0  0  0  0  0  0  0
   18.8604   19.4753   26.0481 H   0  0  0  0  0  0  0  0  0  0  0  0
   20.4360   18.7841   27.2943 N   0  3  0  0  0  0  0  0  0  0  0  0
   19.9267   17.9830   27.6816 H   0  0  0  0  0  0  0  0  0  0  0  0
   20.3527   19.5477   27.9743 H   0  0  0  0  0  0  0  0  0  0  0  0
   21.4268   18.5231   27.2584 H   0  0  0  0  0  0  0  0  0  0  0  0
  1  2  1  0  0  0  0
  1  3  1  0  0  0  0
  1  4  1  0  0  0  0
  1  5  1  0  0  0  0
  5  6  1  0  0  0  0
  5  7  1  0  0  0  0
  5  8  1  0  0  0  0
  8  9  1  0  0  0  0
  8 10  1  0  0  0  0
  8 11  1  0  0  0  0
 11 12  1  0  0  0  0
 11 13  1  0  0  0  0
 11 14  1  0  0  0  0
 14 15  1  0  0  0  0
 14 16  1  0  0  0  0
 14 17  1  0  0  0  0
 17 18  1  0  0  0  0
 17 19  1  0  0  0  0
 17 20  1  0  0  0  0
 20 21  1  0  0  0  0
 20 22  1  0  0  0  0
 20 23  1  0  0  0  0
 23 24  1  0  0  0  0
 23 25  1  0  0  0  0
 23 26  1  0  0  0  0
M  END
> <VM2 Rank>
71

> <Conf_Id>
1225

> <Probability>
0.39

> <Sum Probability>
95.36

> <Delta G>
1.778

> <G>
50.040

> <E>
17.173

> <-TS>
32.866

> <U+W>
-4.289

> <U>
49.209

> <W>
-53.498

> <W(PB)>
-55.784

> <W(SA)>
2.286

> <Valence>
3.465

> <Coulomb>
44.958

> <VdW>
0.786

> <VdW6>
-7.903

> <VdW12>
8.690

> <Bond>
0.237

> <Angle>
1.212

> <Pdih>
2.015

> <Idih>
0.000

> <Tether>
0.000

$$$$
VeraChem MOL file


 26 25  0  0  0  0  0  0  0  0999 V2000     
   20.3373   17.9519   20.0144 C   0  0  0  0  0  0  0  0  0  0  0  0
   21.0569   17.7770   19.2042 H   0  0  0  0  0  0  0  0  0  0  0  0
   20.6313   17.3174   20.8598 H   0  0  0  0  0  0  0  0  0  0  0  0
   19.3502   17.6236   19.6641 H   0  0  0  0  0  0  0  0  0  0  0  0
   20.3181   19.4461   20.4082 C   0  0  0  0  0  0  0  0  0  0  0  0
   20.1379   20.0470   19.5059 H   0  0  0  0  0  0  0  0  0  0  0  0
   21.3090   19.7460   20.7742 H   0  0  0  0  0  0  0  0  0  0  0  0
   19.2305   19.7940   21.4566 C   0  0  0  0  0  0  0  0  0  0  0  0
   19.2679   20.8730   21.6605 H   0  0  0  0  0  0  0  0  0  0  0  0
   18.2418   19.6062   21.0158 H   0  0  0  0  0  0  0  0  0  0  0  0
   19.3288   19.0238   22.7991 C   0  0  0  0  0  0  0  0  0  0  0  0
   19.1880   17.9490   22.6247 H   0  0  0  0  0  0  0  0  0  0  0  0
   18.4882   19.3394   23.4309 H   0  0  0  0  0  0  0  0  0  0  0  0
   20.6612   19.2625   23.5537 C   0  0  0  0  0  0  0  0  0  0  0  0
   21.5006   18.9194   22.9350 H   0  0  0  0  0  0  0  0  0  0  0  0
   20.8100   20.3394   23.7131 H   0  0  0  0  0  0  0  0  0  0  0  0
   20.7297   18.5250   24.9118 C   0  0  0  0  0  0  0  0  0  0  0  0
   21.7348   18.6531   25.3354 H   0  0  0  0  0  0  0  0  0  0  0  0
   20.5902   17.4472   24.7540 H   0  0  0  0  0  0  0  0  0  0  0  0
   19.6896   19.0401   25.9245 C   0  0  0  0  0  0  0  0  0  0  0  0
   19.8282   20.1134   26.0802 H   0  0  0  0  0  0  0  0  0  0  0  0
   18.6812   18.8755   25.5367 H   0  0  0  0  0  0  0  0  0  0  0  0
   19.7858   18.3556   27.2726 N   0  3  0  0  0  0  0  0  0  0  0  0
   20.7036   18.4954   27.7075 H   0  0  0  0  0  0  0  0  0  0  0  0
   19.6377   17.3438   27.1989 H   0  0  0  0  0  0  0  0  0  0  0  0
   19.0856   18.7126   27.9320 H   0  0  0  0  0  0  0  0  0  0  0  0
  1  2  1  0  0  0  0
  1  3  1  0  0  0  0
  1  4  1  0  0  0  0
  1  5  1  0  0  0  0
  5  6  1  0  0  0  0
  5  7  1  0  0  0  0
  5  8  1  0  0  0  0
  8  9  1  0  0  0  0
  8 10  1  0  0  0  0
  8 11  1  0  0  0  0
 11 12  1  0  0  0  0
 11 13  1  0  0  0  0
 11 14  1  0  0  0  0
 14 15  1  0  0  0  0
 14 16  1  0  0  0  0
 14 17  1  0  0  0  0
 17 18  1  0  0  0  0
 17 19  1  0  0  0  0
 17 20  1  0  0  0  0
 20 21  1  0  0  0  0
 20 22  1  0  0  0  0
 20 23  1  0  0  0  0
 23 24  1  0  0  0  0
 23 25  1  0  0  0  0
 23 26  1  0  0  0  0
M  END
> <VM2 Rank>
72

> <Conf_Id>
508

> <Probability>
0.37

> <Sum Probability>
95.73

> <Delta G>
1.805

> <G>
50.067

> <E>
17.200

> <-TS>
32.867

> <U+W>
-4.262

> <U>
49.209

> <W>
-53.471

> <W(PB)>
-55.745

> <W(SA)>
2.274

> <Valence>
3.465

> <Coulomb>
44.958

> <VdW>
0.786

> <VdW6>
-7.903

> <VdW12>
8.689

> <Bond>
0.237

> <Angle>
1.212

> <Pdih>
2.015

> <Idih>
0.000

> <Tether>
0.000

$$$$
VeraChem MOL file


 26 25  0  0  0  0  0  0  0  0999 V2000     
   20.3768   19.1767   19.5971 C   0  0  0  0  0  0  0  0  0  0  0  0
   21.0232   18.9689   18.7346 H   0  0  0  0  0  0  0  0  0  0  0  0
   19.3365   19.0277   19.2801 H   0  0  0  0  0  0  0  0  0  0  0  0
   20.5089   20.2335   19.8596 H   0  0  0  0  0  0  0  0  0  0  0  0
   20.7367   18.2471   20.7783 C   0  0  0  0  0  0  0  0  0  0  0  0
   21.7699   18.4395   21.0996 H   0  0  0  0  0  0  0  0  0  0  0  0
   20.7134   17.2060   20.4268 H   0  0  0  0  0  0  0  0  0  0  0  0
   19.7784   18.3829   21.9864 C   0  0  0  0  0  0  0  0  0  0  0  0
   18.7476   18.1868   21.6611 H   0  0  0  0  0  0  0  0  0  0  0  0
   20.0314   17.5960   22.7085 H   0  0  0  0  0  0  0  0  0  0  0  0
   19.8540   19.7663   22.6812 C   0  0  0  0  0  0  0  0  0  0  0  0
   19.6085   20.5527   21.9560 H   0  0  0  0  0  0  0  0  0  0  0  0
   20.8850   19.9630   23.0038 H   0  0  0  0  0  0  0  0  0  0  0  0
   18.8848   19.9106   23.8834 C   0  0  0  0  0  0  0  0  0  0  0  0
   18.9657   20.9329   24.2783 H   0  0  0  0  0  0  0  0  0  0  0  0
   17.8508   19.8063   23.5268 H   0  0  0  0  0  0  0  0  0  0  0  0
   19.1209   18.9089   25.0414 C   0  0  0  0  0  0  0  0  0  0  0  0
   18.9018   17.8871   24.7067 H   0  0  0  0  0  0  0  0  0  0  0  0
   18.4076   19.1265   25.8474 H   0  0  0  0  0  0  0  0  0  0  0  0
   20.5524   18.9757   25.6052 C   0  0  0  0  0  0  0  0  0  0  0  0
   21.2698   18.7194   24.8211 H   0  0  0  0  0  0  0  0  0  0  0  0
   20.7655   19.9914   25.9489 H   0  0  0  0  0  0  0  0  0  0  0  0
   20.7769   18.0308   26.7680 N   0  3  0  0  0  0  0  0  0  0  0  0
   20.6183   17.0534   26.5025 H   0  0  0  0  0  0  0  0  0  0  0  0
   20.1503   18.2359   27.5531 H   0  0  0  0  0  0  0  0  0  0  0  0
   21.7357   18.0908   27.1279 H   0  0  0  0  0  0  0  0  0  0  0  0
  1  2  1  0  0  0  0
  1  3  1  0  0  0  0
  1  4  1  0  0  0  0
  1  5  1  0  0  0  0
  5  6  1  0  0  0  0
  5  7  1  0  0  0  0
  5  8  1  0  0  0  0
  8  9  1  0  0  0  0
  8 10  1  0  0  0  0
  8 11  1  0  0  0  0
 11 12  1  0  0  0  0
 11 13  1  0  0  0  0
 11 14  1  0  0  0  0
 14 15  1  0  0  0  0
 14 16  1  0  0  0  0
 14 17  1  0  0  0  0
 17 18  1  0  0  0  0
 17 19  1  0  0  0  0
 17 20  1  0  0  0  0
 20 21  1  0  0  0  0
 20 22  1  0  0  0  0
 20 23  1  0  0  0  0
 23 24  1  0  0  0  0
 23 25  1  0  0  0  0
 23 26  1  0  0  0  0
M  END
> <VM2 Rank>
73

> <Conf_Id>
1328

> <Probability>
0.35

> <Sum Probability>
96.08

> <Delta G>
1.844

> <G>
50.105

> <E>
17.344

> <-TS>
32.762

> <U+W>
-4.118

> <U>
49.638

> <W>
-53.757

> <W(PB)>
-56.037

> <W(SA)>
2.280

> <Valence>
3.490

> <Coulomb>
45.361

> <VdW>
0.787

> <VdW6>
-7.914

> <VdW12>
8.702

> <Bond>
0.240

> <Angle>
1.203

> <Pdih>
2.047

> <Idih>
0.000

> <Tether>
0.000

$$$$
VeraChem MOL file


 26 25  0  0  0  0  0  0  0  0999 V2000     
   19.0729   19.1981   20.0756 C   0  0  0  0  0  0  0  0  0  0  0  0
   18.8961   20.1549   20.5823 H   0  0  0  0  0  0  0  0  0  0  0  0
   19.7816   19.3693   19.2550 H   0  0  0  0  0  0  0  0  0  0  0  0
   18.1204   18.8758   19.6354 H   0  0  0  0  0  0  0  0  0  0  0  0
   19.6062   18.1286   21.0553 C   0  0  0  0  0  0  0  0  0  0  0  0
   19.6634   17.1650   20.5302 H   0  0  0  0  0  0  0  0  0  0  0  0
   18.8876   17.9835   21.8729 H   0  0  0  0  0  0  0  0  0  0  0  0
   21.0073   18.4636   21.6268 C   0  0  0  0  0  0  0  0  0  0  0  0
   21.3398   17.6344   22.2653 H   0  0  0  0  0  0  0  0  0  0  0  0
   21.7273   18.5025   20.7979 H   0  0  0  0  0  0  0  0  0  0  0  0
   21.0959   19.7947   22.4212 C   0  0  0  0  0  0  0  0  0  0  0  0
   20.9347   20.6372   21.7355 H   0  0  0  0  0  0  0  0  0  0  0  0
   22.1223   19.9123   22.7949 H   0  0  0  0  0  0  0  0  0  0  0  0
   20.1110   19.9217   23.6119 C   0  0  0  0  0  0  0  0  0  0  0  0
   20.2555   20.9065   24.0774 H   0  0  0  0  0  0  0  0  0  0  0  0
   19.0758   19.9101   23.2457 H   0  0  0  0  0  0  0  0  0  0  0  0
   20.2980   18.8262   24.6874 C   0  0  0  0  0  0  0  0  0  0  0  0
   21.3419   18.8172   25.0281 H   0  0  0  0  0  0  0  0  0  0  0  0
   20.0882   17.8378   24.2594 H   0  0  0  0  0  0  0  0  0  0  0  0
   19.3686   19.0589   25.8914 C   0  0  0  0  0  0  0  0  0  0  0  0
   19.5815   20.0341   26.3377 H   0  0  0  0  0  0  0  0  0  0  0  0
   18.3270   19.0527   25.5590 H   0  0  0  0  0  0  0  0  0  0  0  0
   19.5212   18.0073   26.9714 N   0  3  0  0  0  0  0  0  0  0  0  0
   19.3073   17.0672   26.6225 H   0  0  0  0  0  0  0  0  0  0  0  0
   18.8937   18.1816   27.7640 H   0  0  0  0  0  0  0  0  0  0  0  0
   20.4750   17.9805   27.3464 H   0  0  0  0  0  0  0  0  0  0  0  0
  1  2  1  0  0  0  0
  1  3  1  0  0  0  0
  1  4  1  0  0  0  0
  1  5  1  0  0  0  0
  5  6  1  0  0  0  0
  5  7  1  0  0  0  0
  5  8  1  0  0  0  0
  8  9  1  0  0  0  0
  8 10  1  0  0  0  0
  8 11  1  0  0  0  0
 11 12  1  0  0  0  0
 11 13  1  0  0  0  0
 11 14  1  0  0  0  0
 14 15  1  0  0  0  0
 14 16  1  0  0  0  0
 14 17  1  0  0  0  0
 17 18  1  0  0  0  0
 17 19  1  0  0  0  0
 17 20  1  0  0  0  0
 20 21  1  0  0  0  0
 20 22  1  0  0  0  0
 20 23  1  0  0  0  0
 23 24  1  0  0  0  0
 23 25  1  0  0  0  0
 23 26  1  0  0  0  0
M  END
> <VM2 Rank>
74

> <Conf_Id>
860

> <Probability>
0.33

> <Sum Probability>
96.42

> <Delta G>
1.876

> <G>
50.137

> <E>
17.019

> <-TS>
33.118

> <U+W>
-4.443

> <U>
49.278

> <W>
-53.721

> <W(PB)>
-55.978

> <W(SA)>
2.257

> <Valence>
3.566

> <Coulomb>
45.108

> <VdW>
0.604

> <VdW6>
-8.326

> <VdW12>
8.930

> <Bond>
0.252

> <Angle>
1.371

> <Pdih>
1.943

> <Idih>
0.000

> <Tether>
0.000

$$$$
VeraChem MOL file


 26 25  0  0  0  0  0  0  0  0999 V2000     
   20.2772   19.9920   20.1156 C   0  0  0  0  0  0  0  0  0  0  0  0
   19.4443   20.5162   20.6003 H   0  0  0  0  0  0  0  0  0  0  0  0
   20.9679   20.7531   19.7303 H   0  0  0  0  0  0  0  0  0  0  0  0
   19.8797   19.4337   19.2581 H   0  0  0  0  0  0  0  0  0  0  0  0
   21.0042   19.0503   21.1019 C   0  0  0  0  0  0  0  0  0  0  0  0
   21.3818   19.6281   21.9561 H   0  0  0  0  0  0  0  0  0  0  0  0
   21.8912   18.6338   20.6046 H   0  0  0  0  0  0  0  0  0  0  0  0
   20.1194   17.8782   21.5972 C   0  0  0  0  0  0  0  0  0  0  0  0
   19.8393   17.2577   20.7349 H   0  0  0  0  0  0  0  0  0  0  0  0
   20.7206   17.2262   22.2446 H   0  0  0  0  0  0  0  0  0  0  0  0
   18.8253   18.2977   22.3453 C   0  0  0  0  0  0  0  0  0  0  0  0
   18.2965   17.3900   22.6671 H   0  0  0  0  0  0  0  0  0  0  0  0
   18.1467   18.7991   21.6424 H   0  0  0  0  0  0  0  0  0  0  0  0
   19.0403   19.2157   23.5762 C   0  0  0  0  0  0  0  0  0  0  0  0
   19.4747   20.1731   23.2590 H   0  0  0  0  0  0  0  0  0  0  0  0
   18.0573   19.4573   24.0040 H   0  0  0  0  0  0  0  0  0  0  0  0
   19.9228   18.5789   24.6749 C   0  0  0  0  0  0  0  0  0  0  0  0
   20.9329   18.3948   24.2876 H   0  0  0  0  0  0  0  0  0  0  0  0
   19.5051   17.6062   24.9666 H   0  0  0  0  0  0  0  0  0  0  0  0
   20.0182   19.4872   25.9132 C   0  0  0  0  0  0  0  0  0  0  0  0
   20.4487   20.4515   25.6301 H   0  0  0  0  0  0  0  0  0  0  0  0
   19.0181   19.6627   26.3189 H   0  0  0  0  0  0  0  0  0  0  0  0
   20.8736   18.8989   27.0167 N   0  3  0  0  0  0  0  0  0  0  0  0
   20.9232   19.5195   27.8320 H   0  0  0  0  0  0  0  0  0  0  0  0
   21.8373   18.7352   26.7073 H   0  0  0  0  0  0  0  0  0  0  0  0
   20.5059   18.0008   27.3474 H   0  0  0  0  0  0  0  0  0  0  0  0
  1  2  1  0  0  0  0
  1  3  1  0  0  0  0
  1  4  1  0  0  0  0
  1  5  1  0  0  0  0
  5  6  1  0  0  0  0
  5  7  1  0  0  0  0
  5  8  1  0  0  0  0
  8  9  1  0  0  0  0
  8 10  1  0  0  0  0
  8 11  1  0  0  0  0
 11 12  1  0  0  0  0
 11 13  1  0  0  0  0
 11 14  1  0  0  0  0
 14 15  1  0  0  0  0
 14 16  1  0  0  0  0
 14 17  1  0  0  0  0
 17 18  1  0  0  0  0
 17 19  1  0  0  0  0
 17 20  1  0  0  0  0
 20 21  1  0  0  0  0
 20 22  1  0  0  0  0
 20 23  1  0  0  0  0
 23 24  1  0  0  0  0
 23 25  1  0  0  0  0
 23 26  1  0  0  0  0
M  END
> <VM2 Rank>
75

> <Conf_Id>
956

> <Probability>
0.33

> <Sum Probability>
96.74

> <Delta G>
1.884

> <G>
50.145

> <E>
17.027

> <-TS>
33.118

> <U+W>
-4.435

> <U>
49.278

> <W>
-53.712

> <W(PB)>
-55.986

> <W(SA)>
2.274

> <Valence>
3.566

> <Coulomb>
45.107

> <VdW>
0.605

> <VdW6>
-8.325

> <VdW12>
8.930

> <Bond>
0.252

> <Angle>
1.371

> <Pdih>
1.943

> <Idih>
0.000

> <Tether>
0.000

$$$$
VeraChem MOL file


 26 25  0  0  0  0  0  0  0  0999 V2000     
   19.8748   19.9097   19.7645 C   0  0  0  0  0  0  0  0  0  0  0  0
   19.0346   19.4411   19.2356 H   0  0  0  0  0  0  0  0  0  0  0  0
   19.5352   20.8772   20.1567 H   0  0  0  0  0  0  0  0  0  0  0  0
   20.6685   20.1030   19.0312 H   0  0  0  0  0  0  0  0  0  0  0  0
   20.3917   19.0016   20.9004 C   0  0  0  0  0  0  0  0  0  0  0  0
   21.2544   19.4846   21.3783 H   0  0  0  0  0  0  0  0  0  0  0  0
   20.7519   18.0545   20.4750 H   0  0  0  0  0  0  0  0  0  0  0  0
   19.2908   18.7174   21.9490 C   0  0  0  0  0  0  0  0  0  0  0  0
   18.9546   19.6606   22.3994 H   0  0  0  0  0  0  0  0  0  0  0  0
   18.4130   18.2974   21.4388 H   0  0  0  0  0  0  0  0  0  0  0  0
   19.7315   17.7266   23.0571 C   0  0  0  0  0  0  0  0  0  0  0  0
   19.9680   16.7586   22.5941 H   0  0  0  0  0  0  0  0  0  0  0  0
   18.8769   17.5353   23.7198 H   0  0  0  0  0  0  0  0  0  0  0  0
   20.9493   18.1817   23.9058 C   0  0  0  0  0  0  0  0  0  0  0  0
   21.1566   17.4142   24.6634 H   0  0  0  0  0  0  0  0  0  0  0  0
   21.8460   18.2134   23.2728 H   0  0  0  0  0  0  0  0  0  0  0  0
   20.7775   19.5556   24.6049 C   0  0  0  0  0  0  0  0  0  0  0  0
   20.7283   20.3502   23.8495 H   0  0  0  0  0  0  0  0  0  0  0  0
   21.6706   19.7689   25.2071 H   0  0  0  0  0  0  0  0  0  0  0  0
   19.5286   19.6465   25.5044 C   0  0  0  0  0  0  0  0  0  0  0  0
   19.4580   20.6520   25.9282 H   0  0  0  0  0  0  0  0  0  0  0  0
   18.6308   19.4648   24.9080 H   0  0  0  0  0  0  0  0  0  0  0  0
   19.5368   18.6598   26.6550 N   0  3  0  0  0  0  0  0  0  0  0  0
   20.3440   18.8010   27.2710 H   0  0  0  0  0  0  0  0  0  0  0  0
   19.5759   17.6919   26.3213 H   0  0  0  0  0  0  0  0  0  0  0  0
   18.6965   18.7454   27.2370 H   0  0  0  0  0  0  0  0  0  0  0  0
  1  2  1  0  0  0  0
  1  3  1  0  0  0  0
  1  4  1  0  0  0  0
  1  5  1  0  0  0  0
  5  6  1  0  0  0  0
  5  7  1  0  0  0  0
  5  8  1  0  0  0  0
  8  9  1  0  0  0  0
  8 10  1  0  0  0  0
  8 11  1  0  0  0  0
 11 12  1  0  0  0  0
 11 13  1  0  0  0  0
 11 14  1  0  0  0  0
 14 15  1  0  0  0  0
 14 16  1  0  0  0  0
 14 17  1  0  0  0  0
 17 18  1  0  0  0  0
 17 19  1  0  0  0  0
 17 20  1  0  0  0  0
 20 21  1  0  0  0  0
 20 22  1  0  0  0  0
 20 23  1  0  0  0  0
 23 24  1  0  0  0  0
 23 25  1  0  0  0  0
 23 26  1  0  0  0  0
M  END
> <VM2 Rank>
76

> <Conf_Id>
223

> <Probability>
0.22

> <Sum Probability>
96.96

> <Delta G>
2.133

> <G>
50.395

> <E>
17.165

> <-TS>
33.230

> <U+W>
-4.297

> <U>
49.635

> <W>
-53.931

> <W(PB)>
-56.188

> <W(SA)>
2.257

> <Valence>
3.474

> <Coulomb>
45.628

> <VdW>
0.532

> <VdW6>
-9.030

> <VdW12>
9.562

> <Bond>
0.265

> <Angle>
1.304

> <Pdih>
1.905

> <Idih>
0.000

> <Tether>
0.000

$$$$
VeraChem MOL file


 26 25  0  0  0  0  0  0  0  0999 V2000     
   19.2122   19.7188   20.1751 C   0  0  0  0  0  0  0  0  0  0  0  0
   19.2159   18.9810   19.3623 H   0  0  0  0  0  0  0  0  0  0  0  0
   18.3418   19.5224   20.8135 H   0  0  0  0  0  0  0  0  0  0  0  0
   19.0768   20.7117   19.7272 H   0  0  0  0  0  0  0  0  0  0  0  0
   20.5295   19.6631   20.9810 C   0  0  0  0  0  0  0  0  0  0  0  0
   20.4981   20.4003   21.7944 H   0  0  0  0  0  0  0  0  0  0  0  0
   21.3574   19.9712   20.3274 H   0  0  0  0  0  0  0  0  0  0  0  0
   20.8443   18.2548   21.5465 C   0  0  0  0  0  0  0  0  0  0  0  0
   20.9717   17.5574   20.7072 H   0  0  0  0  0  0  0  0  0  0  0  0
   21.8176   18.2832   22.0538 H   0  0  0  0  0  0  0  0  0  0  0  0
   19.7747   17.6759   22.5116 C   0  0  0  0  0  0  0  0  0  0  0  0
   20.1175   16.6943   22.8667 H   0  0  0  0  0  0  0  0  0  0  0  0
   18.8511   17.4791   21.9511 H   0  0  0  0  0  0  0  0  0  0  0  0
   19.4367   18.5625   23.7380 C   0  0  0  0  0  0  0  0  0  0  0  0
   19.0005   19.5134   23.4042 H   0  0  0  0  0  0  0  0  0  0  0  0
   18.6524   18.0567   24.3162 H   0  0  0  0  0  0  0  0  0  0  0  0
   20.6546   18.8386   24.6547 C   0  0  0  0  0  0  0  0  0  0  0  0
   21.4286   19.3747   24.0915 H   0  0  0  0  0  0  0  0  0  0  0  0
   21.1025   17.8908   24.9814 H   0  0  0  0  0  0  0  0  0  0  0  0
   20.2897   19.6878   25.8877 C   0  0  0  0  0  0  0  0  0  0  0  0
   21.2002   19.9306   26.4423 H   0  0  0  0  0  0  0  0  0  0  0  0
   19.8268   20.6244   25.5657 H   0  0  0  0  0  0  0  0  0  0  0  0
   19.3393   18.9975   26.8465 N   0  3  0  0  0  0  0  0  0  0  0  0
   19.7293   18.1187   27.2021 H   0  0  0  0  0  0  0  0  0  0  0  0
   18.4450   18.7734   26.3994 H   0  0  0  0  0  0  0  0  0  0  0  0
   19.1289   19.5835   27.6617 H   0  0  0  0  0  0  0  0  0  0  0  0
  1  2  1  0  0  0  0
  1  3  1  0  0  0  0
  1  4  1  0  0  0  0
  1  5  1  0  0  0  0
  5  6  1  0  0  0  0
  5  7  1  0  0  0  0
  5  8  1  0  0  0  0
  8  9  1  0  0  0  0
  8 10  1  0  0  0  0
  8 11  1  0  0  0  0
 11 12  1  0  0  0  0
 11 13  1  0  0  0  0
 11 14  1  0  0  0  0
 14 15  1  0  0  0  0
 14 16  1  0  0  0  0
 14 17  1  0  0  0  0
 17 18  1  0  0  0  0
 17 19  1  0  0  0  0
 17 20  1  0  0  0  0
 20 21  1  0  0  0  0
 20 22  1  0  0  0  0
 20 23  1  0  0  0  0
 23 24  1  0  0  0  0
 23 25  1  0  0  0  0
 23 26  1  0  0  0  0
M  END
> <VM2 Rank>
77

> <Conf_Id>
215

> <Probability>
0.20

> <Sum Probability>
97.16

> <Delta G>
2.164

> <G>
50.426

> <E>
17.208

> <-TS>
33.217

> <U+W>
-4.254

> <U>
49.638

> <W>
-53.891

> <W(PB)>
-56.131

> <W(SA)>
2.239

> <Valence>
3.692

> <Coulomb>
45.199

> <VdW>
0.747

> <VdW6>
-8.826

> <VdW12>
9.573

> <Bond>
0.278

> <Angle>
1.445

> <Pdih>
1.968

> <Idih>
0.000

> <Tether>
0.000

$$$$
VeraChem MOL file


 26 25  0  0  0  0  0  0  0  0999 V2000     
   19.7389   20.0662   20.1925 C   0  0  0  0  0  0  0  0  0  0  0  0
   18.9006   20.5952   19.7210 H   0  0  0  0  0  0  0  0  0  0  0  0
   20.2309   20.7689   20.8763 H   0  0  0  0  0  0  0  0  0  0  0  0
   20.4530   19.7971   19.4035 H   0  0  0  0  0  0  0  0  0  0  0  0
   19.2358   18.8093   20.9377 C   0  0  0  0  0  0  0  0  0  0  0  0
   18.6585   18.1901   20.2372 H   0  0  0  0  0  0  0  0  0  0  0  0
   18.5330   19.1037   21.7286 H   0  0  0  0  0  0  0  0  0  0  0  0
   20.3798   17.9484   21.5310 C   0  0  0  0  0  0  0  0  0  0  0  0
   19.9483   17.0498   21.9914 H   0  0  0  0  0  0  0  0  0  0  0  0
   21.0097   17.5824   20.7086 H   0  0  0  0  0  0  0  0  0  0  0  0
   21.2862   18.6735   22.5621 C   0  0  0  0  0  0  0  0  0  0  0  0
   21.8552   19.4618   22.0516 H   0  0  0  0  0  0  0  0  0  0  0  0
   22.0371   17.9613   22.9309 H   0  0  0  0  0  0  0  0  0  0  0  0
   20.5471   19.2954   23.7751 C   0  0  0  0  0  0  0  0  0  0  0  0
   21.2924   19.7991   24.4045 H   0  0  0  0  0  0  0  0  0  0  0  0
   19.8601   20.0807   23.4330 H   0  0  0  0  0  0  0  0  0  0  0  0
   19.7732   18.2570   24.6253 C   0  0  0  0  0  0  0  0  0  0  0  0
   20.4532   17.4624   24.9597 H   0  0  0  0  0  0  0  0  0  0  0  0
   19.0034   17.7742   24.0105 H   0  0  0  0  0  0  0  0  0  0  0  0
   19.0789   18.8886   25.8473 C   0  0  0  0  0  0  0  0  0  0  0  0
   18.4147   19.6925   25.5186 H   0  0  0  0  0  0  0  0  0  0  0  0
   18.4731   18.1306   26.3513 H   0  0  0  0  0  0  0  0  0  0  0  0
   20.0411   19.4606   26.8699 N   0  3  0  0  0  0  0  0  0  0  0  0
   20.6792   18.7455   27.2338 H   0  0  0  0  0  0  0  0  0  0  0  0
   19.5474   19.8595   27.6758 H   0  0  0  0  0  0  0  0  0  0  0  0
   20.6184   20.2078   26.4721 H   0  0  0  0  0  0  0  0  0  0  0  0
  1  2  1  0  0  0  0
  1  3  1  0  0  0  0
  1  4  1  0  0  0  0
  1  5  1  0  0  0  0
  5  6  1  0  0  0  0
  5  7  1  0  0  0  0
  5  8  1  0  0  0  0
  8  9  1  0  0  0  0
  8 10  1  0  0  0  0
  8 11  1  0  0  0  0
 11 12  1  0  0  0  0
 11 13  1  0  0  0  0
 11 14  1  0  0  0  0
 14 15  1  0  0  0  0
 14 16  1  0  0  0  0
 14 17  1  0  0  0  0
 17 18  1  0  0  0  0
 17 19  1  0  0  0  0
 17 20  1  0  0  0  0
 20 21  1  0  0  0  0
 20 22  1  0  0  0  0
 20 23  1  0  0  0  0
 23 24  1  0  0  0  0
 23 25  1  0  0  0  0
 23 26  1  0  0  0  0
M  END
> <VM2 Rank>
78

> <Conf_Id>
464

> <Probability>
0.20

> <Sum Probability>
97.36

> <Delta G>
2.185

> <G>
50.446

> <E>
17.229

> <-TS>
33.217

> <U+W>
-4.232

> <U>
49.638

> <W>
-53.870

> <W(PB)>
-56.099

> <W(SA)>
2.229

> <Valence>
3.691

> <Coulomb>
45.199

> <VdW>
0.747

> <VdW6>
-8.826

> <VdW12>
9.573

> <Bond>
0.278

> <Angle>
1.445

> <Pdih>
1.968

> <Idih>
0.000

> <Tether>
0.000

$$$$
VeraChem MOL file


 26 25  0  0  0  0  0  0  0  0999 V2000     
   19.2699   19.2735   19.9941 C   0  0  0  0  0  0  0  0  0  0  0  0
   18.4781   19.4438   20.7342 H   0  0  0  0  0  0  0  0  0  0  0  0
   19.6449   20.2496   19.6599 H   0  0  0  0  0  0  0  0  0  0  0  0
   18.8124   18.7752   19.1296 H   0  0  0  0  0  0  0  0  0  0  0  0
   20.4115   18.4094   20.5755 C   0  0  0  0  0  0  0  0  0  0  0  0
   21.1167   18.1661   19.7685 H   0  0  0  0  0  0  0  0  0  0  0  0
   20.0096   17.4478   20.9213 H   0  0  0  0  0  0  0  0  0  0  0  0
   21.1929   19.1071   21.7182 C   0  0  0  0  0  0  0  0  0  0  0  0
   21.9975   18.4393   22.0555 H   0  0  0  0  0  0  0  0  0  0  0  0
   21.6925   19.9974   21.3122 H   0  0  0  0  0  0  0  0  0  0  0  0
   20.3429   19.5318   22.9438 C   0  0  0  0  0  0  0  0  0  0  0  0
   19.5995   20.2812   22.6419 H   0  0  0  0  0  0  0  0  0  0  0  0
   21.0083   20.0371   23.6559 H   0  0  0  0  0  0  0  0  0  0  0  0
   19.6355   18.3460   23.6476 C   0  0  0  0  0  0  0  0  0  0  0  0
   18.9481   17.8595   22.9435 H   0  0  0  0  0  0  0  0  0  0  0  0
   20.3758   17.5851   23.9283 H   0  0  0  0  0  0  0  0  0  0  0  0
   18.8201   18.7752   24.8934 C   0  0  0  0  0  0  0  0  0  0  0  0
   18.3024   17.8992   25.3063 H   0  0  0  0  0  0  0  0  0  0  0  0
   18.0342   19.4781   24.5866 H   0  0  0  0  0  0  0  0  0  0  0  0
   19.6638   19.4307   26.0056 C   0  0  0  0  0  0  0  0  0  0  0  0
   20.1434   20.3351   25.6229 H   0  0  0  0  0  0  0  0  0  0  0  0
   19.0109   19.7184   26.8341 H   0  0  0  0  0  0  0  0  0  0  0  0
   20.7444   18.5254   26.5628 N   0  3  0  0  0  0  0  0  0  0  0  0
   21.4110   18.2435   25.8375 H   0  0  0  0  0  0  0  0  0  0  0  0
   20.3521   17.6677   26.9646 H   0  0  0  0  0  0  0  0  0  0  0  0
   21.2823   18.9858   27.3050 H   0  0  0  0  0  0  0  0  0  0  0  0
  1  2  1  0  0  0  0
  1  3  1  0  0  0  0
  1  4  1  0  0  0  0
  1  5  1  0  0  0  0
  5  6  1  0  0  0  0
  5  7  1  0  0  0  0
  5  8  1  0  0  0  0
  8  9  1  0  0  0  0
  8 10  1  0  0  0  0
  8 11  1  0  0  0  0
 11 12  1  0  0  0  0
 11 13  1  0  0  0  0
 11 14  1  0  0  0  0
 14 15  1  0  0  0  0
 14 16  1  0  0  0  0
 14 17  1  0  0  0  0
 17 18  1  0  0  0  0
 17 19  1  0  0  0  0
 17 20  1  0  0  0  0
 20 21  1  0  0  0  0
 20 22  1  0  0  0  0
 20 23  1  0  0  0  0
 23 24  1  0  0  0  0
 23 25  1  0  0  0  0
 23 26  1  0  0  0  0
M  END
> <VM2 Rank>
79

> <Conf_Id>
68

> <Probability>
0.19

> <Sum Probability>
97.55

> <Delta G>
2.204

> <G>
50.466

> <E>
17.411

> <-TS>
33.055

> <U+W>
-4.051

> <U>
49.822

> <W>
-53.873

> <W(PB)>
-56.118

> <W(SA)>
2.246

> <Valence>
3.548

> <Coulomb>
45.475

> <VdW>
0.799

> <VdW6>
-8.640

> <VdW12>
9.439

> <Bond>
0.263

> <Angle>
1.337

> <Pdih>
1.948

> <Idih>
0.000

> <Tether>
0.000

$$$$
VeraChem MOL file


 26 25  0  0  0  0  0  0  0  0999 V2000     
   20.1344   19.8435   20.0230 C   0  0  0  0  0  0  0  0  0  0  0  0
   19.1062   19.8948   19.6421 H   0  0  0  0  0  0  0  0  0  0  0  0
   20.2551   20.6150   20.7936 H   0  0  0  0  0  0  0  0  0  0  0  0
   20.8120   20.0934   19.1964 H   0  0  0  0  0  0  0  0  0  0  0  0
   20.4519   18.4361   20.5767 C   0  0  0  0  0  0  0  0  0  0  0  0
   21.4769   18.4149   20.9701 H   0  0  0  0  0  0  0  0  0  0  0  0
   20.4355   17.7174   19.7456 H   0  0  0  0  0  0  0  0  0  0  0  0
   19.4510   17.9591   21.6600 C   0  0  0  0  0  0  0  0  0  0  0  0
   18.4558   17.8643   21.2042 H   0  0  0  0  0  0  0  0  0  0  0  0
   19.7320   16.9462   21.9798 H   0  0  0  0  0  0  0  0  0  0  0  0
   19.3384   18.8695   22.9103 C   0  0  0  0  0  0  0  0  0  0  0  0
   18.5795   18.4363   23.5748 H   0  0  0  0  0  0  0  0  0  0  0  0
   18.9567   19.8574   22.6206 H   0  0  0  0  0  0  0  0  0  0  0  0
   20.6726   19.0291   23.6823 C   0  0  0  0  0  0  0  0  0  0  0  0
   21.0669   18.0403   23.9515 H   0  0  0  0  0  0  0  0  0  0  0  0
   21.4226   19.4897   23.0262 H   0  0  0  0  0  0  0  0  0  0  0  0
   20.5415   19.9093   24.9508 C   0  0  0  0  0  0  0  0  0  0  0  0
   20.2197   20.9179   24.6594 H   0  0  0  0  0  0  0  0  0  0  0  0
   21.5302   20.0258   25.4142 H   0  0  0  0  0  0  0  0  0  0  0  0
   19.5557   19.3596   26.0019 C   0  0  0  0  0  0  0  0  0  0  0  0
   19.5098   20.0474   26.8507 H   0  0  0  0  0  0  0  0  0  0  0  0
   18.5545   19.2884   25.5696 H   0  0  0  0  0  0  0  0  0  0  0  0
   19.9355   17.9927   26.5359 N   0  3  0  0  0  0  0  0  0  0  0  0
   20.8586   18.0017   26.9817 H   0  0  0  0  0  0  0  0  0  0  0  0
   19.9658   17.2915   25.7893 H   0  0  0  0  0  0  0  0  0  0  0  0
   19.2665   17.6580   27.2376 H   0  0  0  0  0  0  0  0  0  0  0  0
  1  2  1  0  0  0  0
  1  3  1  0  0  0  0
  1  4  1  0  0  0  0
  1  5  1  0  0  0  0
  5  6  1  0  0  0  0
  5  7  1  0  0  0  0
  5  8  1  0  0  0  0
  8  9  1  0  0  0  0
  8 10  1  0  0  0  0
  8 11  1  0  0  0  0
 11 12  1  0  0  0  0
 11 13  1  0  0  0  0
 11 14  1  0  0  0  0
 14 15  1  0  0  0  0
 14 16  1  0  0  0  0
 14 17  1  0  0  0  0
 17 18  1  0  0  0  0
 17 19  1  0  0  0  0
 17 20  1  0  0  0  0
 20 21  1  0  0  0  0
 20 22  1  0  0  0  0
 20 23  1  0  0  0  0
 23 24  1  0  0  0  0
 23 25  1  0  0  0  0
 23 26  1  0  0  0  0
M  END
> <VM2 Rank>
80

> <Conf_Id>
67

> <Probability>
0.18

> <Sum Probability>
97.73

> <Delta G>
2.225

> <G>
50.487

> <E>
17.432

> <-TS>
33.055

> <U+W>
-4.030

> <U>
49.822

> <W>
-53.852

> <W(PB)>
-56.097

> <W(SA)>
2.246

> <Valence>
3.548

> <Coulomb>
45.475

> <VdW>
0.799

> <VdW6>
-8.641

> <VdW12>
9.440

> <Bond>
0.263

> <Angle>
1.337

> <Pdih>
1.948

> <Idih>
0.000

> <Tether>
0.000

$$$$
VeraChem MOL file


 26 25  0  0  0  0  0  0  0  0999 V2000     
   20.4314   19.2148   19.8954 C   0  0  0  0  0  0  0  0  0  0  0  0
   20.4732   20.2489   20.2593 H   0  0  0  0  0  0  0  0  0  0  0  0
   21.2721   19.0733   19.2039 H   0  0  0  0  0  0  0  0  0  0  0  0
   19.5021   19.0880   19.3252 H   0  0  0  0  0  0  0  0  0  0  0  0
   20.5112   18.2014   21.0593 C   0  0  0  0  0  0  0  0  0  0  0  0
   21.4408   18.3573   21.6226 H   0  0  0  0  0  0  0  0  0  0  0  0
   20.5784   17.1873   20.6413 H   0  0  0  0  0  0  0  0  0  0  0  0
   19.2903   18.2629   22.0120 C   0  0  0  0  0  0  0  0  0  0  0  0
   18.3848   18.0107   21.4434 H   0  0  0  0  0  0  0  0  0  0  0  0
   19.3899   17.4753   22.7707 H   0  0  0  0  0  0  0  0  0  0  0  0
   19.0698   19.6301   22.7133 C   0  0  0  0  0  0  0  0  0  0  0  0
   18.1851   19.5554   23.3598 H   0  0  0  0  0  0  0  0  0  0  0  0
   18.8126   20.3863   21.9598 H   0  0  0  0  0  0  0  0  0  0  0  0
   20.2733   20.1452   23.5477 C   0  0  0  0  0  0  0  0  0  0  0  0
   21.1149   20.3689   22.8788 H   0  0  0  0  0  0  0  0  0  0  0  0
   19.9966   21.1045   24.0065 H   0  0  0  0  0  0  0  0  0  0  0  0
   20.7524   19.1791   24.6594 C   0  0  0  0  0  0  0  0  0  0  0  0
   21.5938   19.6414   25.1922 H   0  0  0  0  0  0  0  0  0  0  0  0
   21.1406   18.2550   24.2127 H   0  0  0  0  0  0  0  0  0  0  0  0
   19.6415   18.8396   25.6703 C   0  0  0  0  0  0  0  0  0  0  0  0
   19.2639   19.7596   26.1246 H   0  0  0  0  0  0  0  0  0  0  0  0
   18.8137   18.3444   25.1560 H   0  0  0  0  0  0  0  0  0  0  0  0
   20.1112   17.9258   26.7836 N   0  3  0  0  0  0  0  0  0  0  0  0
   19.3567   17.7123   27.4450 H   0  0  0  0  0  0  0  0  0  0  0  0
   20.8733   18.3455   27.3260 H   0  0  0  0  0  0  0  0  0  0  0  0
   20.4550   17.0297   26.4232 H   0  0  0  0  0  0  0  0  0  0  0  0
  1  2  1  0  0  0  0
  1  3  1  0  0  0  0
  1  4  1  0  0  0  0
  1  5  1  0  0  0  0
  5  6  1  0  0  0  0
  5  7  1  0  0  0  0
  5  8  1  0  0  0  0
  8  9  1  0  0  0  0
  8 10  1  0  0  0  0
  8 11  1  0  0  0  0
 11 12  1  0  0  0  0
 11 13  1  0  0  0  0
 11 14  1  0  0  0  0
 14 15  1  0  0  0  0
 14 16  1  0  0  0  0
 14 17  1  0  0  0  0
 17 18  1  0  0  0  0
 17 19  1  0  0  0  0
 17 20  1  0  0  0  0
 20 21  1  0  0  0  0
 20 22  1  0  0  0  0
 20 23  1  0  0  0  0
 23 24  1  0  0  0  0
 23 25  1  0  0  0  0
 23 26  1  0  0  0  0
M  END
> <VM2 Rank>
81

> <Conf_Id>
684

> <Probability>
0.17

> <Sum Probability>
97.90

> <Delta G>
2.277

> <G>
50.539

> <E>
17.207

> <-TS>
33.332

> <U+W>
-4.255

> <U>
49.824

> <W>
-54.080

> <W(PB)>
-56.298

> <W(SA)>
2.219

> <Valence>
3.796

> <Coulomb>
45.507

> <VdW>
0.521

> <VdW6>
-9.173

> <VdW12>
9.694

> <Bond>
0.280

> <Angle>
1.536

> <Pdih>
1.980

> <Idih>
0.000

> <Tether>
0.000

$$$$
VeraChem MOL file


 26 25  0  0  0  0  0  0  0  0999 V2000     
   18.8839   18.5276   20.3786 C   0  0  0  0  0  0  0  0  0  0  0  0
   18.2529   17.6925   20.0478 H   0  0  0  0  0  0  0  0  0  0  0  0
   18.2533   19.2062   20.9663 H   0  0  0  0  0  0  0  0  0  0  0  0
   19.2267   19.0645   19.4846 H   0  0  0  0  0  0  0  0  0  0  0  0
   20.0807   18.0074   21.2063 C   0  0  0  0  0  0  0  0  0  0  0  0
   20.6178   17.2523   20.6155 H   0  0  0  0  0  0  0  0  0  0  0  0
   19.7143   17.4850   22.1000 H   0  0  0  0  0  0  0  0  0  0  0  0
   21.0797   19.1217   21.6090 C   0  0  0  0  0  0  0  0  0  0  0  0
   21.9245   18.6671   22.1432 H   0  0  0  0  0  0  0  0  0  0  0  0
   21.5096   19.5580   20.6969 H   0  0  0  0  0  0  0  0  0  0  0  0
   20.4809   20.2667   22.4697 C   0  0  0  0  0  0  0  0  0  0  0  0
   19.7572   20.8324   21.8679 H   0  0  0  0  0  0  0  0  0  0  0  0
   21.2816   20.9788   22.7122 H   0  0  0  0  0  0  0  0  0  0  0  0
   19.7957   19.8150   23.7850 C   0  0  0  0  0  0  0  0  0  0  0  0
   19.4006   20.7054   24.2933 H   0  0  0  0  0  0  0  0  0  0  0  0
   18.9257   19.1884   23.5512 H   0  0  0  0  0  0  0  0  0  0  0  0
   20.7491   19.0672   24.7498 C   0  0  0  0  0  0  0  0  0  0  0  0
   21.6465   19.6770   24.9188 H   0  0  0  0  0  0  0  0  0  0  0  0
   21.0885   18.1255   24.3001 H   0  0  0  0  0  0  0  0  0  0  0  0
   20.0968   18.7691   26.1133 C   0  0  0  0  0  0  0  0  0  0  0  0
   20.8369   18.3162   26.7785 H   0  0  0  0  0  0  0  0  0  0  0  0
   19.7542   19.7020   26.5692 H   0  0  0  0  0  0  0  0  0  0  0  0
   18.9141   17.8243   26.0293 N   0  3  0  0  0  0  0  0  0  0  0  0
   18.1644   18.2062   25.4447 H   0  0  0  0  0  0  0  0  0  0  0  0
   18.5094   17.6386   26.9535 H   0  0  0  0  0  0  0  0  0  0  0  0
   19.1788   16.9177   25.6308 H   0  0  0  0  0  0  0  0  0  0  0  0
  1  2  1  0  0  0  0
  1  3  1  0  0  0  0
  1  4  1  0  0  0  0
  1  5  1  0  0  0  0
  5  6  1  0  0  0  0
  5  7  1  0  0  0  0
  5  8  1  0  0  0  0
  8  9  1  0  0  0  0
  8 10  1  0  0  0  0
  8 11  1  0  0  0  0
 11 12  1  0  0  0  0
 11 13  1  0  0  0  0
 11 14  1  0  0  0  0
 14 15  1  0  0  0  0
 14 16  1  0  0  0  0
 14 17  1  0  0  0  0
 17 18  1  0  0  0  0
 17 19  1  0  0  0  0
 17 20  1  0  0  0  0
 20 21  1  0  0  0  0
 20 22  1  0  0  0  0
 20 23  1  0  0  0  0
 23 24  1  0  0  0  0
 23 25  1  0  0  0  0
 23 26  1  0  0  0  0
M  END
> <VM2 Rank>
82

> <Conf_Id>
282

> <Probability>
0.17

> <Sum Probability>
98.07

> <Delta G>
2.289

> <G>
50.550

> <E>
17.319

> <-TS>
33.231

> <U+W>
-4.142

> <U>
50.091

> <W>
-54.234

> <W(PB)>
-56.461

> <W(SA)>
2.228

> <Valence>
3.653

> <Coulomb>
45.797

> <VdW>
0.641

> <VdW6>
-8.932

> <VdW12>
9.573

> <Bond>
0.273

> <Angle>
1.380

> <Pdih>
2.000

> <Idih>
0.000

> <Tether>
0.000

$$$$
VeraChem MOL file


 26 25  0  0  0  0  0  0  0  0999 V2000     
   19.7362   18.7566   19.8722 C   0  0  0  0  0  0  0  0  0  0  0  0
   18.7534   19.1157   20.2020 H   0  0  0  0  0  0  0  0  0  0  0  0
   20.2448   19.5773   19.3500 H   0  0  0  0  0  0  0  0  0  0  0  0
   19.5675   17.9501   19.1471 H   0  0  0  0  0  0  0  0  0  0  0  0
   20.5812   18.2475   21.0617 C   0  0  0  0  0  0  0  0  0  0  0  0
   21.5052   17.7980   20.6723 H   0  0  0  0  0  0  0  0  0  0  0  0
   20.0461   17.4382   21.5762 H   0  0  0  0  0  0  0  0  0  0  0  0
   20.9608   19.3635   22.0678 C   0  0  0  0  0  0  0  0  0  0  0  0
   21.6094   18.9378   22.8449 H   0  0  0  0  0  0  0  0  0  0  0  0
   21.5751   20.1128   21.5499 H   0  0  0  0  0  0  0  0  0  0  0  0
   19.7596   20.0847   22.7364 C   0  0  0  0  0  0  0  0  0  0  0  0
   19.2016   20.6427   21.9728 H   0  0  0  0  0  0  0  0  0  0  0  0
   20.1462   20.8476   23.4253 H   0  0  0  0  0  0  0  0  0  0  0  0
   18.7742   19.1577   23.4976 C   0  0  0  0  0  0  0  0  0  0  0  0
   17.9810   19.7766   23.9392 H   0  0  0  0  0  0  0  0  0  0  0  0
   18.2688   18.4938   22.7837 H   0  0  0  0  0  0  0  0  0  0  0  0
   19.4210   18.3020   24.6149 C   0  0  0  0  0  0  0  0  0  0  0  0
   20.1374   17.5941   24.1791 H   0  0  0  0  0  0  0  0  0  0  0  0
   18.6406   17.6957   25.0936 H   0  0  0  0  0  0  0  0  0  0  0  0
   20.1228   19.1568   25.6863 C   0  0  0  0  0  0  0  0  0  0  0  0
   20.9272   19.7368   25.2265 H   0  0  0  0  0  0  0  0  0  0  0  0
   19.4056   19.8529   26.1293 H   0  0  0  0  0  0  0  0  0  0  0  0
   20.7251   18.3303   26.8040 N   0  3  0  0  0  0  0  0  0  0  0  0
   20.0146   17.7798   27.2972 H   0  0  0  0  0  0  0  0  0  0  0  0
   21.1873   18.9183   27.5061 H   0  0  0  0  0  0  0  0  0  0  0  0
   21.4293   17.6717   26.4557 H   0  0  0  0  0  0  0  0  0  0  0  0
  1  2  1  0  0  0  0
  1  3  1  0  0  0  0
  1  4  1  0  0  0  0
  1  5  1  0  0  0  0
  5  6  1  0  0  0  0
  5  7  1  0  0  0  0
  5  8  1  0  0  0  0
  8  9  1  0  0  0  0
  8 10  1  0  0  0  0
  8 11  1  0  0  0  0
 11 12  1  0  0  0  0
 11 13  1  0  0  0  0
 11 14  1  0  0  0  0
 14 15  1  0  0  0  0
 14 16  1  0  0  0  0
 14 17  1  0  0  0  0
 17 18  1  0  0  0  0
 17 19  1  0  0  0  0
 17 20  1  0  0  0  0
 20 21  1  0  0  0  0
 20 22  1  0  0  0  0
 20 23  1  0  0  0  0
 23 24  1  0  0  0  0
 23 25  1  0  0  0  0
 23 26  1  0  0  0  0
M  END
> <VM2 Rank>
83

> <Conf_Id>
768

> <Probability>
0.16

> <Sum Probability>
98.23

> <Delta G>
2.314

> <G>
50.575

> <E>
17.243

> <-TS>
33.332

> <U+W>
-4.219

> <U>
49.824

> <W>
-54.043

> <W(PB)>
-56.275

> <W(SA)>
2.232

> <Valence>
3.797

> <Coulomb>
45.507

> <VdW>
0.521

> <VdW6>
-9.173

> <VdW12>
9.694

> <Bond>
0.280

> <Angle>
1.536

> <Pdih>
1.980

> <Idih>
0.000

> <Tether>
0.000

$$$$
VeraChem MOL file


 26 25  0  0  0  0  0  0  0  0999 V2000     
   18.4608   18.7619   20.9237 C   0  0  0  0  0  0  0  0  0  0  0  0
   18.1611   18.7446   21.9785 H   0  0  0  0  0  0  0  0  0  0  0  0
   18.2230   19.7524   20.5147 H   0  0  0  0  0  0  0  0  0  0  0  0
   17.8464   18.0231   20.3932 H   0  0  0  0  0  0  0  0  0  0  0  0
   19.9625   18.4382   20.7551 C   0  0  0  0  0  0  0  0  0  0  0  0
   20.1873   18.3546   19.6827 H   0  0  0  0  0  0  0  0  0  0  0  0
   20.1801   17.4511   21.1844 H   0  0  0  0  0  0  0  0  0  0  0  0
   20.8973   19.5098   21.3720 C   0  0  0  0  0  0  0  0  0  0  0  0
   21.9402   19.2264   21.1739 H   0  0  0  0  0  0  0  0  0  0  0  0
   20.7401   20.4621   20.8472 H   0  0  0  0  0  0  0  0  0  0  0  0
   20.7192   19.7454   22.8940 C   0  0  0  0  0  0  0  0  0  0  0  0
   19.7114   20.1324   23.0910 H   0  0  0  0  0  0  0  0  0  0  0  0
   21.4135   20.5384   23.2041 H   0  0  0  0  0  0  0  0  0  0  0  0
   20.9861   18.4807   23.7485 C   0  0  0  0  0  0  0  0  0  0  0  0
   20.2496   17.7023   23.5127 H   0  0  0  0  0  0  0  0  0  0  0  0
   21.9676   18.0661   23.4803 H   0  0  0  0  0  0  0  0  0  0  0  0
   20.9689   18.7640   25.2714 C   0  0  0  0  0  0  0  0  0  0  0  0
   21.7657   19.4791   25.5159 H   0  0  0  0  0  0  0  0  0  0  0  0
   21.2088   17.8410   25.8157 H   0  0  0  0  0  0  0  0  0  0  0  0
   19.6274   19.3216   25.7889 C   0  0  0  0  0  0  0  0  0  0  0  0
   19.7085   19.5267   26.8598 H   0  0  0  0  0  0  0  0  0  0  0  0
   19.3964   20.2610   25.2802 H   0  0  0  0  0  0  0  0  0  0  0  0
   18.4587   18.3774   25.5873 N   0  3  0  0  0  0  0  0  0  0  0  0
   17.5826   18.7744   25.9437 H   0  0  0  0  0  0  0  0  0  0  0  0
   18.6030   17.4860   26.0728 H   0  0  0  0  0  0  0  0  0  0  0  0
   18.3135   18.1637   24.5960 H   0  0  0  0  0  0  0  0  0  0  0  0
  1  2  1  0  0  0  0
  1  3  1  0  0  0  0
  1  4  1  0  0  0  0
  1  5  1  0  0  0  0
  5  6  1  0  0  0  0
  5  7  1  0  0  0  0
  5  8  1  0  0  0  0
  8  9  1  0  0  0  0
  8 10  1  0  0  0  0
  8 11  1  0  0  0  0
 11 12  1  0  0  0  0
 11 13  1  0  0  0  0
 11 14  1  0  0  0  0
 14 15  1  0  0  0  0
 14 16  1  0  0  0  0
 14 17  1  0  0  0  0
 17 18  1  0  0  0  0
 17 19  1  0  0  0  0
 17 20  1  0  0  0  0
 20 21  1  0  0  0  0
 20 22  1  0  0  0  0
 20 23  1  0  0  0  0
 23 24  1  0  0  0  0
 23 25  1  0  0  0  0
 23 26  1  0  0  0  0
M  END
> <VM2 Rank>
84

> <Conf_Id>
1117

> <Probability>
0.11

> <Sum Probability>
98.34

> <Delta G>
2.550

> <G>
50.812

> <E>
17.758

> <-TS>
33.053

> <U+W>
-3.703

> <U>
50.414

> <W>
-54.117

> <W(PB)>
-56.317

> <W(SA)>
2.199

> <Valence>
3.472

> <Coulomb>
46.374

> <VdW>
0.568

> <VdW6>
-8.861

> <VdW12>
9.429

> <Bond>
0.255

> <Angle>
1.219

> <Pdih>
1.997

> <Idih>
0.000

> <Tether>
0.000

$$$$
VeraChem MOL file


 26 25  0  0  0  0  0  0  0  0999 V2000     
   20.8776   20.3569   21.0046 C   0  0  0  0  0  0  0  0  0  0  0  0
   20.0797   20.9778   20.5769 H   0  0  0  0  0  0  0  0  0  0  0  0
   20.9619   20.5930   22.0722 H   0  0  0  0  0  0  0  0  0  0  0  0
   21.8219   20.6470   20.5261 H   0  0  0  0  0  0  0  0  0  0  0  0
   20.5941   18.8549   20.7763 C   0  0  0  0  0  0  0  0  0  0  0  0
   21.3957   18.2534   21.2252 H   0  0  0  0  0  0  0  0  0  0  0  0
   20.6328   18.6485   19.6976 H   0  0  0  0  0  0  0  0  0  0  0  0
   19.2144   18.3990   21.3157 C   0  0  0  0  0  0  0  0  0  0  0  0
   18.4255   18.9343   20.7696 H   0  0  0  0  0  0  0  0  0  0  0  0
   19.0751   17.3353   21.0781 H   0  0  0  0  0  0  0  0  0  0  0  0
   18.9967   18.6086   22.8363 C   0  0  0  0  0  0  0  0  0  0  0  0
   17.9815   18.2734   23.0892 H   0  0  0  0  0  0  0  0  0  0  0  0
   19.0271   19.6808   23.0680 H   0  0  0  0  0  0  0  0  0  0  0  0
   20.0141   17.8393   23.7160 C   0  0  0  0  0  0  0  0  0  0  0  0
   20.0227   16.7826   23.4154 H   0  0  0  0  0  0  0  0  0  0  0  0
   21.0291   18.2166   23.5388 H   0  0  0  0  0  0  0  0  0  0  0  0
   19.6896   17.9201   25.2287 C   0  0  0  0  0  0  0  0  0  0  0  0
   20.4181   17.3195   25.7894 H   0  0  0  0  0  0  0  0  0  0  0  0
   18.7088   17.4623   25.4137 H   0  0  0  0  0  0  0  0  0  0  0  0
   19.6796   19.3562   25.7905 C   0  0  0  0  0  0  0  0  0  0  0  0
   18.9311   19.9541   25.2643 H   0  0  0  0  0  0  0  0  0  0  0  0
   19.4093   19.3298   26.8496 H   0  0  0  0  0  0  0  0  0  0  0  0
   21.0149   20.0640   25.6729 N   0  3  0  0  0  0  0  0  0  0  0  0
   21.3146   20.1435   24.6965 H   0  0  0  0  0  0  0  0  0  0  0  0
   21.7544   19.5656   26.1785 H   0  0  0  0  0  0  0  0  0  0  0  0
   20.9773   21.0144   26.0572 H   0  0  0  0  0  0  0  0  0  0  0  0
  1  2  1  0  0  0  0
  1  3  1  0  0  0  0
  1  4  1  0  0  0  0
  1  5  1  0  0  0  0
  5  6  1  0  0  0  0
  5  7  1  0  0  0  0
  5  8  1  0  0  0  0
  8  9  1  0  0  0  0
  8 10  1  0  0  0  0
  8 11  1  0  0  0  0
 11 12  1  0  0  0  0
 11 13  1  0  0  0  0
 11 14  1  0  0  0  0
 14 15  1  0  0  0  0
 14 16  1  0  0  0  0
 14 17  1  0  0  0  0
 17 18  1  0  0  0  0
 17 19  1  0  0  0  0
 17 20  1  0  0  0  0
 20 21  1  0  0  0  0
 20 22  1  0  0  0  0
 20 23  1  0  0  0  0
 23 24  1  0  0  0  0
 23 25  1  0  0  0  0
 23 26  1  0  0  0  0
M  END
> <VM2 Rank>
85

> <Conf_Id>
235

> <Probability>
0.09

> <Sum Probability>
98.43

> <Delta G>
2.628

> <G>
50.889

> <E>
17.836

> <-TS>
33.053

> <U+W>
-3.626

> <U>
50.413

> <W>
-54.040

> <W(PB)>
-56.257

> <W(SA)>
2.217

> <Valence>
3.472

> <Coulomb>
46.374

> <VdW>
0.568

> <VdW6>
-8.861

> <VdW12>
9.429

> <Bond>
0.255

> <Angle>
1.219

> <Pdih>
1.997

> <Idih>
0.000

> <Tether>
0.000

$$$$
VeraChem MOL file


 26 25  0  0  0  0  0  0  0  0999 V2000     
   20.5912   19.2033   19.9559 C   0  0  0  0  0  0  0  0  0  0  0  0
   19.9474   19.9614   19.4915 H   0  0  0  0  0  0  0  0  0  0  0  0
   21.4024   19.7184   20.4851 H   0  0  0  0  0  0  0  0  0  0  0  0
   21.0452   18.6096   19.1521 H   0  0  0  0  0  0  0  0  0  0  0  0
   19.7810   18.2952   20.9084 C   0  0  0  0  0  0  0  0  0  0  0  0
   20.4482   17.5560   21.3715 H   0  0  0  0  0  0  0  0  0  0  0  0
   19.0570   17.7184   20.3163 H   0  0  0  0  0  0  0  0  0  0  0  0
   19.0114   19.0811   22.0002 C   0  0  0  0  0  0  0  0  0  0  0  0
   18.2833   19.7435   21.5121 H   0  0  0  0  0  0  0  0  0  0  0  0
   18.4154   18.3755   22.5939 H   0  0  0  0  0  0  0  0  0  0  0  0
   19.8978   19.9330   22.9480 C   0  0  0  0  0  0  0  0  0  0  0  0
   19.2486   20.4418   23.6729 H   0  0  0  0  0  0  0  0  0  0  0  0
   20.3737   20.7380   22.3726 H   0  0  0  0  0  0  0  0  0  0  0  0
   20.9975   19.1436   23.7076 C   0  0  0  0  0  0  0  0  0  0  0  0
   21.7312   18.7550   22.9889 H   0  0  0  0  0  0  0  0  0  0  0  0
   21.5565   19.8420   24.3445 H   0  0  0  0  0  0  0  0  0  0  0  0
   20.4718   17.9700   24.5750 C   0  0  0  0  0  0  0  0  0  0  0  0
   21.3163   17.4977   25.0941 H   0  0  0  0  0  0  0  0  0  0  0  0
   20.0460   17.1938   23.9265 H   0  0  0  0  0  0  0  0  0  0  0  0
   19.4107   18.3868   25.6130 C   0  0  0  0  0  0  0  0  0  0  0  0
   18.5509   18.8298   25.1037 H   0  0  0  0  0  0  0  0  0  0  0  0
   19.0661   17.5026   26.1560 H   0  0  0  0  0  0  0  0  0  0  0  0
   19.9196   19.3860   26.6329 N   0  3  0  0  0  0  0  0  0  0  0  0
   19.1940   19.6419   27.3112 H   0  0  0  0  0  0  0  0  0  0  0  0
   20.2351   20.2526   26.1866 H   0  0  0  0  0  0  0  0  0  0  0  0
   20.7117   19.0141   27.1668 H   0  0  0  0  0  0  0  0  0  0  0  0
  1  2  1  0  0  0  0
  1  3  1  0  0  0  0
  1  4  1  0  0  0  0
  1  5  1  0  0  0  0
  5  6  1  0  0  0  0
  5  7  1  0  0  0  0
  5  8  1  0  0  0  0
  8  9  1  0  0  0  0
  8 10  1  0  0  0  0
  8 11  1  0  0  0  0
 11 12  1  0  0  0  0
 11 13  1  0  0  0  0
 11 14  1  0  0  0  0
 14 15  1  0  0  0  0
 14 16  1  0  0  0  0
 14 17  1  0  0  0  0
 17 18  1  0  0  0  0
 17 19  1  0  0  0  0
 17 20  1  0  0  0  0
 20 21  1  0  0  0  0
 20 22  1  0  0  0  0
 20 23  1  0  0  0  0
 23 24  1  0  0  0  0
 23 25  1  0  0  0  0
 23 26  1  0  0  0  0
M  END
> <VM2 Rank>
86

> <Conf_Id>
1050

> <Probability>
0.09

> <Sum Probability>
98.52

> <Delta G>
2.671

> <G>
50.932

> <E>
17.405

> <-TS>
33.527

> <U+W>
-4.057

> <U>
50.052

> <W>
-54.109

> <W(PB)>
-56.310

> <W(SA)>
2.201

> <Valence>
3.896

> <Coulomb>
45.624

> <VdW>
0.532

> <VdW6>
-9.866

> <VdW12>
10.399

> <Bond>
0.306

> <Angle>
1.609

> <Pdih>
1.981

> <Idih>
0.000

> <Tether>
0.000

$$$$
VeraChem MOL file


 26 25  0  0  0  0  0  0  0  0999 V2000     
   20.5432   19.0159   19.2136 C   0  0  0  0  0  0  0  0  0  0  0  0
   21.3000   18.5562   18.5648 H   0  0  0  0  0  0  0  0  0  0  0  0
   19.5545   18.7085   18.8484 H   0  0  0  0  0  0  0  0  0  0  0  0
   20.6239   20.1054   19.1059 H   0  0  0  0  0  0  0  0  0  0  0  0
   20.7504   18.5866   20.6815 C   0  0  0  0  0  0  0  0  0  0  0  0
   21.7591   18.8771   21.0070 H   0  0  0  0  0  0  0  0  0  0  0  0
   20.6976   17.4911   20.7517 H   0  0  0  0  0  0  0  0  0  0  0  0
   19.6970   19.2206   21.6169 C   0  0  0  0  0  0  0  0  0  0  0  0
   19.7525   20.3156   21.5424 H   0  0  0  0  0  0  0  0  0  0  0  0
   18.6909   18.9301   21.2842 H   0  0  0  0  0  0  0  0  0  0  0  0
   19.9001   18.7919   23.0878 C   0  0  0  0  0  0  0  0  0  0  0  0
   20.9094   19.0839   23.4028 H   0  0  0  0  0  0  0  0  0  0  0  0
   19.8355   17.6974   23.1614 H   0  0  0  0  0  0  0  0  0  0  0  0
   18.8515   19.4393   24.0231 C   0  0  0  0  0  0  0  0  0  0  0  0
   18.9926   20.5290   24.0331 H   0  0  0  0  0  0  0  0  0  0  0  0
   17.8489   19.2644   23.6087 H   0  0  0  0  0  0  0  0  0  0  0  0
   18.8713   18.9034   25.4776 C   0  0  0  0  0  0  0  0  0  0  0  0
   18.6693   17.8241   25.4903 H   0  0  0  0  0  0  0  0  0  0  0  0
   18.0391   19.3719   26.0198 H   0  0  0  0  0  0  0  0  0  0  0  0
   20.1687   19.2077   26.2551 C   0  0  0  0  0  0  0  0  0  0  0  0
   20.5150   20.2175   26.0189 H   0  0  0  0  0  0  0  0  0  0  0  0
   19.9595   19.1633   27.3273 H   0  0  0  0  0  0  0  0  0  0  0  0
   21.2990   18.2335   25.9854 N   0  3  0  0  0  0  0  0  0  0  0  0
   21.0432   17.2751   26.2443 H   0  0  0  0  0  0  0  0  0  0  0  0
   22.1418   18.4721   26.5194 H   0  0  0  0  0  0  0  0  0  0  0  0
   21.5615   18.2199   24.9960 H   0  0  0  0  0  0  0  0  0  0  0  0
  1  2  1  0  0  0  0
  1  3  1  0  0  0  0
  1  4  1  0  0  0  0
  1  5  1  0  0  0  0
  5  6  1  0  0  0  0
  5  7  1  0  0  0  0
  5  8  1  0  0  0  0
  8  9  1  0  0  0  0
  8 10  1  0  0  0  0
  8 11  1  0  0  0  0
 11 12  1  0  0  0  0
 11 13  1  0  0  0  0
 11 14  1  0  0  0  0
 14 15  1  0  0  0  0
 14 16  1  0  0  0  0
 14 17  1  0  0  0  0
 17 18  1  0  0  0  0
 17 19  1  0  0  0  0
 17 20  1  0  0  0  0
 20 21  1  0  0  0  0
 20 22  1  0  0  0  0
 20 23  1  0  0  0  0
 23 24  1  0  0  0  0
 23 25  1  0  0  0  0
 23 26  1  0  0  0  0
M  END
> <VM2 Rank>
87

> <Conf_Id>
859

> <Probability>
0.07

> <Sum Probability>
98.59

> <Delta G>
2.763

> <G>
51.024

> <E>
18.524

> <-TS>
32.500

> <U+W>
-2.937

> <U>
50.881

> <W>
-53.819

> <W(PB)>
-56.136

> <W(SA)>
2.317

> <Valence>
3.754

> <Coulomb>
46.575

> <VdW>
0.553

> <VdW6>
-7.276

> <VdW12>
7.829

> <Bond>
0.187

> <Angle>
0.957

> <Pdih>
2.610

> <Idih>
0.000

> <Tether>
0.000

$$$$
VeraChem MOL file


 26 25  0  0  0  0  0  0  0  0999 V2000     
   19.9069   18.5964   19.1923 C   0  0  0  0  0  0  0  0  0  0  0  0
   18.8797   18.9556   19.0476 H   0  0  0  0  0  0  0  0  0  0  0  0
   20.5949   19.3941   18.8831 H   0  0  0  0  0  0  0  0  0  0  0  0
   20.0618   17.7399   18.5234 H   0  0  0  0  0  0  0  0  0  0  0  0
   20.1512   18.1917   20.6615 C   0  0  0  0  0  0  0  0  0  0  0  0
   21.1747   17.8055   20.7678 H   0  0  0  0  0  0  0  0  0  0  0  0
   19.4727   17.3701   20.9306 H   0  0  0  0  0  0  0  0  0  0  0  0
   19.9396   19.3805   21.6250 C   0  0  0  0  0  0  0  0  0  0  0  0
   20.6175   20.2000   21.3486 H   0  0  0  0  0  0  0  0  0  0  0  0
   18.9158   19.7641   21.5144 H   0  0  0  0  0  0  0  0  0  0  0  0
   20.1849   18.9797   23.0973 C   0  0  0  0  0  0  0  0  0  0  0  0
   21.2119   18.6047   23.2075 H   0  0  0  0  0  0  0  0  0  0  0  0
   19.5053   18.1585   23.3560 H   0  0  0  0  0  0  0  0  0  0  0  0
   19.9591   20.1695   24.0601 C   0  0  0  0  0  0  0  0  0  0  0  0
   20.5331   21.0338   23.6983 H   0  0  0  0  0  0  0  0  0  0  0  0
   18.9025   20.4698   24.0300 H   0  0  0  0  0  0  0  0  0  0  0  0
   20.3757   19.8953   25.5279 C   0  0  0  0  0  0  0  0  0  0  0  0
   20.2473   20.8276   26.0936 H   0  0  0  0  0  0  0  0  0  0  0  0
   21.4457   19.6545   25.5832 H   0  0  0  0  0  0  0  0  0  0  0  0
   19.5502   18.8000   26.2344 C   0  0  0  0  0  0  0  0  0  0  0  0
   19.6232   18.9417   27.3161 H   0  0  0  0  0  0  0  0  0  0  0  0
   18.4978   18.8875   25.9514 H   0  0  0  0  0  0  0  0  0  0  0  0
   20.0133   17.3859   25.9424 N   0  3  0  0  0  0  0  0  0  0  0  0
   19.9688   17.1698   24.9428 H   0  0  0  0  0  0  0  0  0  0  0  0
   19.4381   16.6896   26.4290 H   0  0  0  0  0  0  0  0  0  0  0  0
   20.9819   17.2347   26.2424 H   0  0  0  0  0  0  0  0  0  0  0  0
  1  2  1  0  0  0  0
  1  3  1  0  0  0  0
  1  4  1  0  0  0  0
  1  5  1  0  0  0  0
  5  6  1  0  0  0  0
  5  7  1  0  0  0  0
  5  8  1  0  0  0  0
  8  9  1  0  0  0  0
  8 10  1  0  0  0  0
  8 11  1  0  0  0  0
 11 12  1  0  0  0  0
 11 13  1  0  0  0  0
 11 14  1  0  0  0  0
 14 15  1  0  0  0  0
 14 16  1  0  0  0  0
 14 17  1  0  0  0  0
 17 18  1  0  0  0  0
 17 19  1  0  0  0  0
 17 20  1  0  0  0  0
 20 21  1  0  0  0  0
 20 22  1  0  0  0  0
 20 23  1  0  0  0  0
 23 24  1  0  0  0  0
 23 25  1  0  0  0  0
 23 26  1  0  0  0  0
M  END
> <VM2 Rank>
88

> <Conf_Id>
1090

> <Probability>
0.07

> <Sum Probability>
98.67

> <Delta G>
2.775

> <G>
51.036

> <E>
18.536

> <-TS>
32.500

> <U+W>
-2.926

> <U>
50.881

> <W>
-53.807

> <W(PB)>
-56.131

> <W(SA)>
2.324

> <Valence>
3.754

> <Coulomb>
46.574

> <VdW>
0.553

> <VdW6>
-7.276

> <VdW12>
7.829

> <Bond>
0.187

> <Angle>
0.957

> <Pdih>
2.610

> <Idih>
0.000

> <Tether>
0.000

$$$$
VeraChem MOL file


 26 25  0  0  0  0  0  0  0  0999 V2000     
   20.5849   20.3112   19.8923 C   0  0  0  0  0  0  0  0  0  0  0  0
   19.5721   20.6285   19.6116 H   0  0  0  0  0  0  0  0  0  0  0  0
   21.0330   21.1023   20.5075 H   0  0  0  0  0  0  0  0  0  0  0  0
   21.1776   20.2234   18.9724 H   0  0  0  0  0  0  0  0  0  0  0  0
   20.5549   18.9677   20.6514 C   0  0  0  0  0  0  0  0  0  0  0  0
   21.5830   18.6604   20.8892 H   0  0  0  0  0  0  0  0  0  0  0  0
   20.1345   18.1898   19.9987 H   0  0  0  0  0  0  0  0  0  0  0  0
   19.7258   19.0632   21.9513 C   0  0  0  0  0  0  0  0  0  0  0  0
   20.1454   19.8526   22.5852 H   0  0  0  0  0  0  0  0  0  0  0  0
   18.6997   19.3698   21.7057 H   0  0  0  0  0  0  0  0  0  0  0  0
   19.6918   17.7135   22.7099 C   0  0  0  0  0  0  0  0  0  0  0  0
   20.7124   17.3772   22.9392 H   0  0  0  0  0  0  0  0  0  0  0  0
   19.2672   16.9557   22.0368 H   0  0  0  0  0  0  0  0  0  0  0  0
   18.8383   17.7440   24.0048 C   0  0  0  0  0  0  0  0  0  0  0  0
   17.9763   18.4133   23.8772 H   0  0  0  0  0  0  0  0  0  0  0  0
   18.4155   16.7413   24.1580 H   0  0  0  0  0  0  0  0  0  0  0  0
   19.6217   18.1198   25.2878 C   0  0  0  0  0  0  0  0  0  0  0  0
   20.4343   17.3984   25.4465 H   0  0  0  0  0  0  0  0  0  0  0  0
   18.9479   18.0226   26.1495 H   0  0  0  0  0  0  0  0  0  0  0  0
   20.2008   19.5454   25.2686 C   0  0  0  0  0  0  0  0  0  0  0  0
   20.9514   19.6262   24.4786 H   0  0  0  0  0  0  0  0  0  0  0  0
   19.4030   20.2651   25.0664 H   0  0  0  0  0  0  0  0  0  0  0  0
   20.8627   19.9343   26.5747 N   0  3  0  0  0  0  0  0  0  0  0  0
   21.2445   20.8858   26.5402 H   0  0  0  0  0  0  0  0  0  0  0  0
   21.6404   19.3089   26.8100 H   0  0  0  0  0  0  0  0  0  0  0  0
   20.2043   19.9055   27.3601 H   0  0  0  0  0  0  0  0  0  0  0  0
  1  2  1  0  0  0  0
  1  3  1  0  0  0  0
  1  4  1  0  0  0  0
  1  5  1  0  0  0  0
  5  6  1  0  0  0  0
  5  7  1  0  0  0  0
  5  8  1  0  0  0  0
  8  9  1  0  0  0  0
  8 10  1  0  0  0  0
  8 11  1  0  0  0  0
 11 12  1  0  0  0  0
 11 13  1  0  0  0  0
 11 14  1  0  0  0  0
 14 15  1  0  0  0  0
 14 16  1  0  0  0  0
 14 17  1  0  0  0  0
 17 18  1  0  0  0  0
 17 19  1  0  0  0  0
 17 20  1  0  0  0  0
 20 21  1  0  0  0  0
 20 22  1  0  0  0  0
 20 23  1  0  0  0  0
 23 24  1  0  0  0  0
 23 25  1  0  0  0  0
 23 26  1  0  0  0  0
M  END
> <VM2 Rank>
89

> <Conf_Id>
1364

> <Probability>
0.07

> <Sum Probability>
98.74

> <Delta G>
2.781

> <G>
51.042

> <E>
18.554

> <-TS>
32.488

> <U+W>
-2.908

> <U>
50.868

> <W>
-53.776

> <W(PB)>
-56.099

> <W(SA)>
2.324

> <Valence>
4.696

> <Coulomb>
45.536

> <VdW>
0.636

> <VdW6>
-7.287

> <VdW12>
7.923

> <Bond>
0.211

> <Angle>
1.115

> <Pdih>
3.370

> <Idih>
0.000

> <Tether>
0.000

$$$$
VeraChem MOL file


 26 25  0  0  0  0  0  0  0  0999 V2000     
   18.6693   19.0475   19.8283 C   0  0  0  0  0  0  0  0  0  0  0  0
   18.5603   18.4969   18.8849 H   0  0  0  0  0  0  0  0  0  0  0  0
   17.7381   18.9285   20.3974 H   0  0  0  0  0  0  0  0  0  0  0  0
   18.7882   20.1115   19.5855 H   0  0  0  0  0  0  0  0  0  0  0  0
   19.8800   18.5225   20.6288 C   0  0  0  0  0  0  0  0  0  0  0  0
   20.7899   18.6224   20.0206 H   0  0  0  0  0  0  0  0  0  0  0  0
   19.7478   17.4497   20.8276 H   0  0  0  0  0  0  0  0  0  0  0  0
   20.0570   19.2817   21.9625 C   0  0  0  0  0  0  0  0  0  0  0  0
   20.1892   20.3526   21.7557 H   0  0  0  0  0  0  0  0  0  0  0  0
   19.1377   19.1875   22.5516 H   0  0  0  0  0  0  0  0  0  0  0  0
   21.2750   18.7579   22.7628 C   0  0  0  0  0  0  0  0  0  0  0  0
   22.1690   18.8702   22.1337 H   0  0  0  0  0  0  0  0  0  0  0  0
   21.1728   17.6808   22.9545 H   0  0  0  0  0  0  0  0  0  0  0  0
   21.5216   19.5141   24.0945 C   0  0  0  0  0  0  0  0  0  0  0  0
   22.6015   19.5027   24.2979 H   0  0  0  0  0  0  0  0  0  0  0  0
   21.2511   20.5735   23.9867 H   0  0  0  0  0  0  0  0  0  0  0  0
   20.8092   18.9031   25.3275 C   0  0  0  0  0  0  0  0  0  0  0  0
   21.1230   19.4572   26.2221 H   0  0  0  0  0  0  0  0  0  0  0  0
   21.1455   17.8675   25.4701 H   0  0  0  0  0  0  0  0  0  0  0  0
   19.2734   18.9336   25.2377 C   0  0  0  0  0  0  0  0  0  0  0  0
   18.9349   19.9563   25.0509 H   0  0  0  0  0  0  0  0  0  0  0  0
   18.9412   18.3004   24.4115 H   0  0  0  0  0  0  0  0  0  0  0  0
   18.5956   18.4387   26.4990 N   0  3  0  0  0  0  0  0  0  0  0  0
   18.8440   19.0080   27.3147 H   0  0  0  0  0  0  0  0  0  0  0  0
   18.8537   17.4707   26.7168 H   0  0  0  0  0  0  0  0  0  0  0  0
   17.5733   18.4641   26.4176 H   0  0  0  0  0  0  0  0  0  0  0  0
  1  2  1  0  0  0  0
  1  3  1  0  0  0  0
  1  4  1  0  0  0  0
  1  5  1  0  0  0  0
  5  6  1  0  0  0  0
  5  7  1  0  0  0  0
  5  8  1  0  0  0  0
  8  9  1  0  0  0  0
  8 10  1  0  0  0  0
  8 11  1  0  0  0  0
 11 12  1  0  0  0  0
 11 13  1  0  0  0  0
 11 14  1  0  0  0  0
 14 15  1  0  0  0  0
 14 16  1  0  0  0  0
 14 17  1  0  0  0  0
 17 18  1  0  0  0  0
 17 19  1  0  0  0  0
 17 20  1  0  0  0  0
 20 21  1  0  0  0  0
 20 22  1  0  0  0  0
 20 23  1  0  0  0  0
 23 24  1  0  0  0  0
 23 25  1  0  0  0  0
 23 26  1  0  0  0  0
M  END
> <VM2 Rank>
90

> <Conf_Id>
546

> <Probability>
0.06

> <Sum Probability>
98.80

> <Delta G>
2.859

> <G>
51.120

> <E>
18.633

> <-TS>
32.487

> <U+W>
-2.829

> <U>
50.868

> <W>
-53.697

> <W(PB)>
-56.030

> <W(SA)>
2.333

> <Valence>
4.695

> <Coulomb>
45.536

> <VdW>
0.636

> <VdW6>
-7.287

> <VdW12>
7.924

> <Bond>
0.211

> <Angle>
1.115

> <Pdih>
3.370

> <Idih>
0.000

> <Tether>
0.000

$$$$
VeraChem MOL file


 26 25  0  0  0  0  0  0  0  0999 V2000     
   18.5437   19.1136   20.0058 C   0  0  0  0  0  0  0  0  0  0  0  0
   18.5059   18.9055   18.9286 H   0  0  0  0  0  0  0  0  0  0  0  0
   17.7724   18.5037   20.4941 H   0  0  0  0  0  0  0  0  0  0  0  0
   18.2882   20.1710   20.1539 H   0  0  0  0  0  0  0  0  0  0  0  0
   19.9436   18.7965   20.5732 C   0  0  0  0  0  0  0  0  0  0  0  0
   20.6960   19.3957   20.0414 H   0  0  0  0  0  0  0  0  0  0  0  0
   20.1847   17.7416   20.3813 H   0  0  0  0  0  0  0  0  0  0  0  0
   20.0240   19.0822   22.0892 C   0  0  0  0  0  0  0  0  0  0  0  0
   19.7881   20.1390   22.2755 H   0  0  0  0  0  0  0  0  0  0  0  0
   19.2620   18.4816   22.6018 H   0  0  0  0  0  0  0  0  0  0  0  0
   21.4215   18.7509   22.6630 C   0  0  0  0  0  0  0  0  0  0  0  0
   22.1865   19.2375   22.0422 H   0  0  0  0  0  0  0  0  0  0  0  0
   21.6031   17.6705   22.5792 H   0  0  0  0  0  0  0  0  0  0  0  0
   21.6379   19.1979   24.1322 C   0  0  0  0  0  0  0  0  0  0  0  0
   22.6731   18.9495   24.4046 H   0  0  0  0  0  0  0  0  0  0  0  0
   21.5650   20.2917   24.2088 H   0  0  0  0  0  0  0  0  0  0  0  0
   20.6945   18.5299   25.1641 C   0  0  0  0  0  0  0  0  0  0  0  0
   21.2043   18.5017   26.1364 H   0  0  0  0  0  0  0  0  0  0  0  0
   20.5059   17.4853   24.8825 H   0  0  0  0  0  0  0  0  0  0  0  0
   19.3635   19.2857   25.3443 C   0  0  0  0  0  0  0  0  0  0  0  0
   19.5657   20.3095   25.6703 H   0  0  0  0  0  0  0  0  0  0  0  0
   18.8215   19.3307   24.3979 H   0  0  0  0  0  0  0  0  0  0  0  0
   18.4522   18.6422   26.3692 N   0  3  0  0  0  0  0  0  0  0  0  0
   17.5744   19.1618   26.4785 H   0  0  0  0  0  0  0  0  0  0  0  0
   18.8899   18.5985   27.2954 H   0  0  0  0  0  0  0  0  0  0  0  0
   18.2011   17.6829   26.1088 H   0  0  0  0  0  0  0  0  0  0  0  0
  1  2  1  0  0  0  0
  1  3  1  0  0  0  0
  1  4  1  0  0  0  0
  1  5  1  0  0  0  0
  5  6  1  0  0  0  0
  5  7  1  0  0  0  0
  5  8  1  0  0  0  0
  8  9  1  0  0  0  0
  8 10  1  0  0  0  0
  8 11  1  0  0  0  0
 11 12  1  0  0  0  0
 11 13  1  0  0  0  0
 11 14  1  0  0  0  0
 14 15  1  0  0  0  0
 14 16  1  0  0  0  0
 14 17  1  0  0  0  0
 17 18  1  0  0  0  0
 17 19  1  0  0  0  0
 17 20  1  0  0  0  0
 20 21  1  0  0  0  0
 20 22  1  0  0  0  0
 20 23  1  0  0  0  0
 23 24  1  0  0  0  0
 23 25  1  0  0  0  0
 23 26  1  0  0  0  0
M  END
> <VM2 Rank>
91

> <Conf_Id>
187

> <Probability>
0.06

> <Sum Probability>
98.86

> <Delta G>
2.872

> <G>
51.133

> <E>
18.444

> <-TS>
32.689

> <U+W>
-3.018

> <U>
50.863

> <W>
-53.880

> <W(PB)>
-56.198

> <W(SA)>
2.318

> <Valence>
4.548

> <Coulomb>
45.757

> <VdW>
0.558

> <VdW6>
-7.490

> <VdW12>
8.048

> <Bond>
0.198

> <Angle>
1.148

> <Pdih>
3.203

> <Idih>
0.000

> <Tether>
0.000

$$$$
VeraChem MOL file


 26 25  0  0  0  0  0  0  0  0999 V2000     
   19.1980   20.1317   20.0005 C   0  0  0  0  0  0  0  0  0  0  0  0
   19.2668   20.1313   18.9049 H   0  0  0  0  0  0  0  0  0  0  0  0
   18.1379   20.0425   20.2716 H   0  0  0  0  0  0  0  0  0  0  0  0
   19.5625   21.1026   20.3605 H   0  0  0  0  0  0  0  0  0  0  0  0
   20.0229   18.9725   20.5988 C   0  0  0  0  0  0  0  0  0  0  0  0
   21.0714   19.0704   20.2841 H   0  0  0  0  0  0  0  0  0  0  0  0
   19.6576   18.0187   20.1929 H   0  0  0  0  0  0  0  0  0  0  0  0
   19.9415   18.9498   22.1412 C   0  0  0  0  0  0  0  0  0  0  0  0
   20.3030   19.9115   22.5264 H   0  0  0  0  0  0  0  0  0  0  0  0
   18.8926   18.8457   22.4509 H   0  0  0  0  0  0  0  0  0  0  0  0
   20.7807   17.7991   22.7440 C   0  0  0  0  0  0  0  0  0  0  0  0
   21.8455   17.9794   22.5413 H   0  0  0  0  0  0  0  0  0  0  0  0
   20.5265   16.8639   22.2261 H   0  0  0  0  0  0  0  0  0  0  0  0
   20.5745   17.5765   24.2648 C   0  0  0  0  0  0  0  0  0  0  0  0
   19.5347   17.2862   24.4634 H   0  0  0  0  0  0  0  0  0  0  0  0
   21.1812   16.7073   24.5542 H   0  0  0  0  0  0  0  0  0  0  0  0
   20.9916   18.7697   25.1659 C   0  0  0  0  0  0  0  0  0  0  0  0
   21.9020   19.2345   24.7648 H   0  0  0  0  0  0  0  0  0  0  0  0
   21.2624   18.3873   26.1591 H   0  0  0  0  0  0  0  0  0  0  0  0
   19.9029   19.8483   25.3494 C   0  0  0  0  0  0  0  0  0  0  0  0
   20.3142   20.6781   25.9306 H   0  0  0  0  0  0  0  0  0  0  0  0
   19.5872   20.2395   24.3809 H   0  0  0  0  0  0  0  0  0  0  0  0
   18.6688   19.3513   26.0765 N   0  3  0  0  0  0  0  0  0  0  0  0
   17.9734   20.0954   26.1988 H   0  0  0  0  0  0  0  0  0  0  0  0
   18.8953   18.9971   27.0114 H   0  0  0  0  0  0  0  0  0  0  0  0
   18.2087   18.5905   25.5676 H   0  0  0  0  0  0  0  0  0  0  0  0
  1  2  1  0  0  0  0
  1  3  1  0  0  0  0
  1  4  1  0  0  0  0
  1  5  1  0  0  0  0
  5  6  1  0  0  0  0
  5  7  1  0  0  0  0
  5  8  1  0  0  0  0
  8  9  1  0  0  0  0
  8 10  1  0  0  0  0
  8 11  1  0  0  0  0
 11 12  1  0  0  0  0
 11 13  1  0  0  0  0
 11 14  1  0  0  0  0
 14 15  1  0  0  0  0
 14 16  1  0  0  0  0
 14 17  1  0  0  0  0
 17 18  1  0  0  0  0
 17 19  1  0  0  0  0
 17 20  1  0  0  0  0
 20 21  1  0  0  0  0
 20 22  1  0  0  0  0
 20 23  1  0  0  0  0
 23 24  1  0  0  0  0
 23 25  1  0  0  0  0
 23 26  1  0  0  0  0
M  END
> <VM2 Rank>
92

> <Conf_Id>
1099

> <Probability>
0.03

> <Sum Probability>
98.90

> <Delta G>
3.275

> <G>
51.537

> <E>
18.787

> <-TS>
32.750

> <U+W>
-2.675

> <U>
51.397

> <W>
-54.072

> <W(PB)>
-56.387

> <W(SA)>
2.315

> <Valence>
4.709

> <Coulomb>
46.079

> <VdW>
0.609

> <VdW6>
-8.057

> <VdW12>
8.666

> <Bond>
0.231

> <Angle>
1.340

> <Pdih>
3.138

> <Idih>
0.000

> <Tether>
0.000

$$$$
VeraChem MOL file


 26 25  0  0  0  0  0  0  0  0999 V2000     
   18.7995   19.7723   20.4165 C   0  0  0  0  0  0  0  0  0  0  0  0
   18.5073   20.0384   21.4382 H   0  0  0  0  0  0  0  0  0  0  0  0
   19.2446   20.6609   19.9504 H   0  0  0  0  0  0  0  0  0  0  0  0
   17.8840   19.5291   19.8618 H   0  0  0  0  0  0  0  0  0  0  0  0
   19.7844   18.5804   20.3834 C   0  0  0  0  0  0  0  0  0  0  0  0
   20.0098   18.3574   19.3310 H   0  0  0  0  0  0  0  0  0  0  0  0
   19.3056   17.6775   20.7874 H   0  0  0  0  0  0  0  0  0  0  0  0
   21.1169   18.8616   21.1245 C   0  0  0  0  0  0  0  0  0  0  0  0
   21.9249   18.3557   20.5781 H   0  0  0  0  0  0  0  0  0  0  0  0
   21.3571   19.9329   21.0813 H   0  0  0  0  0  0  0  0  0  0  0  0
   21.1644   18.3633   22.5921 C   0  0  0  0  0  0  0  0  0  0  0  0
   22.1725   18.5527   22.9860 H   0  0  0  0  0  0  0  0  0  0  0  0
   21.0287   17.2731   22.6115 H   0  0  0  0  0  0  0  0  0  0  0  0
   20.1262   19.0273   23.5260 C   0  0  0  0  0  0  0  0  0  0  0  0
   20.1935   20.1203   23.4347 H   0  0  0  0  0  0  0  0  0  0  0  0
   19.1135   18.7367   23.2177 H   0  0  0  0  0  0  0  0  0  0  0  0
   20.3359   18.6193   25.0008 C   0  0  0  0  0  0  0  0  0  0  0  0
   21.3430   18.9119   25.3267 H   0  0  0  0  0  0  0  0  0  0  0  0
   20.2710   17.5270   25.0950 H   0  0  0  0  0  0  0  0  0  0  0  0
   19.2908   19.2754   25.9201 C   0  0  0  0  0  0  0  0  0  0  0  0
   19.3628   20.3636   25.8416 H   0  0  0  0  0  0  0  0  0  0  0  0
   18.2866   18.9738   25.6101 H   0  0  0  0  0  0  0  0  0  0  0  0
   19.4629   18.8994   27.3776 N   0  3  0  0  0  0  0  0  0  0  0  0
   19.3786   17.8881   27.5239 H   0  0  0  0  0  0  0  0  0  0  0  0
   18.7569   19.3469   27.9725 H   0  0  0  0  0  0  0  0  0  0  0  0
   20.3799   19.1813   27.7394 H   0  0  0  0  0  0  0  0  0  0  0  0
  1  2  1  0  0  0  0
  1  3  1  0  0  0  0
  1  4  1  0  0  0  0
  1  5  1  0  0  0  0
  5  6  1  0  0  0  0
  5  7  1  0  0  0  0
  5  8  1  0  0  0  0
  8  9  1  0  0  0  0
  8 10  1  0  0  0  0
  8 11  1  0  0  0  0
 11 12  1  0  0  0  0
 11 13  1  0  0  0  0
 11 14  1  0  0  0  0
 14 15  1  0  0  0  0
 14 16  1  0  0  0  0
 14 17  1  0  0  0  0
 17 18  1  0  0  0  0
 17 19  1  0  0  0  0
 17 20  1  0  0  0  0
 20 21  1  0  0  0  0
 20 22  1  0  0  0  0
 20 23  1  0  0  0  0
 23 24  1  0  0  0  0
 23 25  1  0  0  0  0
 23 26  1  0  0  0  0
M  END
> <VM2 Rank>
93

> <Conf_Id>
752

> <Probability>
0.03

> <Sum Probability>
98.93

> <Delta G>
3.307

> <G>
51.568

> <E>
18.875

> <-TS>
32.693

> <U+W>
-2.587

> <U>
50.680

> <W>
-53.267

> <W(PB)>
-55.570

> <W(SA)>
2.303

> <Valence>
5.154

> <Coulomb>
44.814

> <VdW>
0.713

> <VdW6>
-7.314

> <VdW12>
8.027

> <Bond>
0.213

> <Angle>
1.193

> <Pdih>
3.748

> <Idih>
0.000

> <Tether>
0.000

$$$$
VeraChem MOL file


 26 25  0  0  0  0  0  0  0  0999 V2000     
   19.8408   20.4592   20.4513 C   0  0  0  0  0  0  0  0  0  0  0  0
   18.8716   20.4149   19.9378 H   0  0  0  0  0  0  0  0  0  0  0  0
   19.6634   20.8010   21.4768 H   0  0  0  0  0  0  0  0  0  0  0  0
   20.4494   21.2213   19.9476 H   0  0  0  0  0  0  0  0  0  0  0  0
   20.5506   19.0858   20.4090 C   0  0  0  0  0  0  0  0  0  0  0  0
   21.5490   19.1573   20.8625 H   0  0  0  0  0  0  0  0  0  0  0  0
   20.7160   18.8231   19.3547 H   0  0  0  0  0  0  0  0  0  0  0  0
   19.7347   17.9498   21.0783 C   0  0  0  0  0  0  0  0  0  0  0  0
   18.6584   18.1527   20.9911 H   0  0  0  0  0  0  0  0  0  0  0  0
   19.9077   17.0250   20.5107 H   0  0  0  0  0  0  0  0  0  0  0  0
   20.1055   17.6648   22.5567 C   0  0  0  0  0  0  0  0  0  0  0  0
   21.1592   17.3593   22.6159 H   0  0  0  0  0  0  0  0  0  0  0  0
   19.5175   16.8013   22.8973 H   0  0  0  0  0  0  0  0  0  0  0  0
   19.8595   18.8514   23.5171 C   0  0  0  0  0  0  0  0  0  0  0  0
   20.5382   19.6767   23.2653 H   0  0  0  0  0  0  0  0  0  0  0  0
   18.8333   19.2230   23.3894 H   0  0  0  0  0  0  0  0  0  0  0  0
   20.0835   18.4527   24.9924 C   0  0  0  0  0  0  0  0  0  0  0  0
   21.1079   18.0792   25.1229 H   0  0  0  0  0  0  0  0  0  0  0  0
   19.4043   17.6329   25.2620 H   0  0  0  0  0  0  0  0  0  0  0  0
   19.8481   19.6431   25.9388 C   0  0  0  0  0  0  0  0  0  0  0  0
   20.5337   20.4563   25.6851 H   0  0  0  0  0  0  0  0  0  0  0  0
   18.8239   20.0080   25.8237 H   0  0  0  0  0  0  0  0  0  0  0  0
   20.0584   19.2921   27.3975 N   0  3  0  0  0  0  0  0  0  0  0  0
   21.0136   18.9666   27.5785 H   0  0  0  0  0  0  0  0  0  0  0  0
   19.4228   18.5497   27.7074 H   0  0  0  0  0  0  0  0  0  0  0  0
   19.8967   20.0986   28.0106 H   0  0  0  0  0  0  0  0  0  0  0  0
  1  2  1  0  0  0  0
  1  3  1  0  0  0  0
  1  4  1  0  0  0  0
  1  5  1  0  0  0  0
  5  6  1  0  0  0  0
  5  7  1  0  0  0  0
  5  8  1  0  0  0  0
  8  9  1  0  0  0  0
  8 10  1  0  0  0  0
  8 11  1  0  0  0  0
 11 12  1  0  0  0  0
 11 13  1  0  0  0  0
 11 14  1  0  0  0  0
 14 15  1  0  0  0  0
 14 16  1  0  0  0  0
 14 17  1  0  0  0  0
 17 18  1  0  0  0  0
 17 19  1  0  0  0  0
 17 20  1  0  0  0  0
 20 21  1  0  0  0  0
 20 22  1  0  0  0  0
 20 23  1  0  0  0  0
 23 24  1  0  0  0  0
 23 25  1  0  0  0  0
 23 26  1  0  0  0  0
M  END
> <VM2 Rank>
94

> <Conf_Id>
439

> <Probability>
0.03

> <Sum Probability>
98.96

> <Delta G>
3.307

> <G>
51.568

> <E>
18.875

> <-TS>
32.693

> <U+W>
-2.586

> <U>
50.680

> <W>
-53.266

> <W(PB)>
-55.566

> <W(SA)>
2.299

> <Valence>
5.154

> <Coulomb>
44.813

> <VdW>
0.713

> <VdW6>
-7.314

> <VdW12>
8.027

> <Bond>
0.213

> <Angle>
1.193

> <Pdih>
3.747

> <Idih>
0.000

> <Tether>
0.000

$$$$
VeraChem MOL file


 26 25  0  0  0  0  0  0  0  0999 V2000     
   18.5979   19.0202   20.5789 C   0  0  0  0  0  0  0  0  0  0  0  0
   18.4174   20.0641   20.8661 H   0  0  0  0  0  0  0  0  0  0  0  0
   17.9126   18.7745   19.7575 H   0  0  0  0  0  0  0  0  0  0  0  0
   18.3382   18.3736   21.4261 H   0  0  0  0  0  0  0  0  0  0  0  0
   20.0633   18.8080   20.1404 C   0  0  0  0  0  0  0  0  0  0  0  0
   20.2279   19.3406   19.1933 H   0  0  0  0  0  0  0  0  0  0  0  0
   20.2279   17.7434   19.9231 H   0  0  0  0  0  0  0  0  0  0  0  0
   21.1154   19.2972   21.1683 C   0  0  0  0  0  0  0  0  0  0  0  0
   22.1082   19.1401   20.7244 H   0  0  0  0  0  0  0  0  0  0  0  0
   21.0250   20.3824   21.3139 H   0  0  0  0  0  0  0  0  0  0  0  0
   21.0766   18.5651   22.5351 C   0  0  0  0  0  0  0  0  0  0  0  0
   22.1063   18.4691   22.9068 H   0  0  0  0  0  0  0  0  0  0  0  0
   20.7051   17.5396   22.4023 H   0  0  0  0  0  0  0  0  0  0  0  0
   20.2439   19.3076   23.6089 C   0  0  0  0  0  0  0  0  0  0  0  0
   20.6657   20.3097   23.7684 H   0  0  0  0  0  0  0  0  0  0  0  0
   19.2141   19.4543   23.2619 H   0  0  0  0  0  0  0  0  0  0  0  0
   20.2243   18.5418   24.9500 C   0  0  0  0  0  0  0  0  0  0  0  0
   21.2516   18.4043   25.3130 H   0  0  0  0  0  0  0  0  0  0  0  0
   19.7993   17.5407   24.7976 H   0  0  0  0  0  0  0  0  0  0  0  0
   19.4016   19.2900   26.0137 C   0  0  0  0  0  0  0  0  0  0  0  0
   19.8308   20.2817   26.1806 H   0  0  0  0  0  0  0  0  0  0  0  0
   18.3734   19.4145   25.6636 H   0  0  0  0  0  0  0  0  0  0  0  0
   19.3580   18.5691   27.3456 N   0  3  0  0  0  0  0  0  0  0  0  0
   18.9387   17.6373   27.2623 H   0  0  0  0  0  0  0  0  0  0  0  0
   18.8054   19.0842   28.0396 H   0  0  0  0  0  0  0  0  0  0  0  0
   20.2947   18.4442   27.7433 H   0  0  0  0  0  0  0  0  0  0  0  0
  1  2  1  0  0  0  0
  1  3  1  0  0  0  0
  1  4  1  0  0  0  0
  1  5  1  0  0  0  0
  5  6  1  0  0  0  0
  5  7  1  0  0  0  0
  5  8  1  0  0  0  0
  8  9  1  0  0  0  0
  8 10  1  0  0  0  0
  8 11  1  0  0  0  0
 11 12  1  0  0  0  0
 11 13  1  0  0  0  0
 11 14  1  0  0  0  0
 14 15  1  0  0  0  0
 14 16  1  0  0  0  0
 14 17  1  0  0  0  0
 17 18  1  0  0  0  0
 17 19  1  0  0  0  0
 17 20  1  0  0  0  0
 20 21  1  0  0  0  0
 20 22  1  0  0  0  0
 20 23  1  0  0  0  0
 23 24  1  0  0  0  0
 23 25  1  0  0  0  0
 23 26  1  0  0  0  0
M  END
> <VM2 Rank>
95

> <Conf_Id>
1248

> <Probability>
0.03

> <Sum Probability>
98.99

> <Delta G>
3.310

> <G>
51.571

> <E>
18.868

> <-TS>
32.704

> <U+W>
-2.594

> <U>
50.662

> <W>
-53.256

> <W(PB)>
-55.568

> <W(SA)>
2.312

> <Valence>
5.128

> <Coulomb>
44.842

> <VdW>
0.692

> <VdW6>
-7.327

> <VdW12>
8.019

> <Bond>
0.214

> <Angle>
1.153

> <Pdih>
3.761

> <Idih>
0.000

> <Tether>
0.000

$$$$
VeraChem MOL file


 26 25  0  0  0  0  0  0  0  0999 V2000     
   19.3727   20.2471   20.0064 C   0  0  0  0  0  0  0  0  0  0  0  0
   18.3210   20.2831   20.3192 H   0  0  0  0  0  0  0  0  0  0  0  0
   19.8575   21.1777   20.3291 H   0  0  0  0  0  0  0  0  0  0  0  0
   19.3970   20.2173   18.9093 H   0  0  0  0  0  0  0  0  0  0  0  0
   20.0866   19.0146   20.6009 C   0  0  0  0  0  0  0  0  0  0  0  0
   21.1250   18.9874   20.2420 H   0  0  0  0  0  0  0  0  0  0  0  0
   19.6004   18.0994   20.2350 H   0  0  0  0  0  0  0  0  0  0  0  0
   20.0677   19.0331   22.1455 C   0  0  0  0  0  0  0  0  0  0  0  0
   20.5600   19.9464   22.5067 H   0  0  0  0  0  0  0  0  0  0  0  0
   19.0245   19.0675   22.4837 H   0  0  0  0  0  0  0  0  0  0  0  0
   20.7680   17.7907   22.7436 C   0  0  0  0  0  0  0  0  0  0  0  0
   21.7510   17.6722   22.2669 H   0  0  0  0  0  0  0  0  0  0  0  0
   20.1944   16.8896   22.4862 H   0  0  0  0  0  0  0  0  0  0  0  0
   20.9827   17.8460   24.2785 C   0  0  0  0  0  0  0  0  0  0  0  0
   21.5303   16.9377   24.5658 H   0  0  0  0  0  0  0  0  0  0  0  0
   21.6477   18.6811   24.5339 H   0  0  0  0  0  0  0  0  0  0  0  0
   19.6811   17.9044   25.1223 C   0  0  0  0  0  0  0  0  0  0  0  0
   19.8804   17.4748   26.1131 H   0  0  0  0  0  0  0  0  0  0  0  0
   18.9160   17.2629   24.6653 H   0  0  0  0  0  0  0  0  0  0  0  0
   19.1079   19.3233   25.3228 C   0  0  0  0  0  0  0  0  0  0  0  0
   18.9169   19.7969   24.3584 H   0  0  0  0  0  0  0  0  0  0  0  0
   18.1574   19.2540   25.8587 H   0  0  0  0  0  0  0  0  0  0  0  0
   20.0143   20.2398   26.1210 N   0  3  0  0  0  0  0  0  0  0  0  0
   19.5973   21.1677   26.2525 H   0  0  0  0  0  0  0  0  0  0  0  0
   20.9172   20.3790   25.6575 H   0  0  0  0  0  0  0  0  0  0  0  0
   20.2079   19.8639   27.0550 H   0  0  0  0  0  0  0  0  0  0  0  0
  1  2  1  0  0  0  0
  1  3  1  0  0  0  0
  1  4  1  0  0  0  0
  1  5  1  0  0  0  0
  5  6  1  0  0  0  0
  5  7  1  0  0  0  0
  5  8  1  0  0  0  0
  8  9  1  0  0  0  0
  8 10  1  0  0  0  0
  8 11  1  0  0  0  0
 11 12  1  0  0  0  0
 11 13  1  0  0  0  0
 11 14  1  0  0  0  0
 14 15  1  0  0  0  0
 14 16  1  0  0  0  0
 14 17  1  0  0  0  0
 17 18  1  0  0  0  0
 17 19  1  0  0  0  0
 17 20  1  0  0  0  0
 20 21  1  0  0  0  0
 20 22  1  0  0  0  0
 20 23  1  0  0  0  0
 23 24  1  0  0  0  0
 23 25  1  0  0  0  0
 23 26  1  0  0  0  0
M  END
> <VM2 Rank>
96

> <Conf_Id>
1349

> <Probability>
0.03

> <Sum Probability>
99.02

> <Delta G>
3.321

> <G>
51.582

> <E>
18.833

> <-TS>
32.750

> <U+W>
-2.629

> <U>
51.398

> <W>
-54.027

> <W(PB)>
-56.343

> <W(SA)>
2.316

> <Valence>
4.709

> <Coulomb>
46.080

> <VdW>
0.609

> <VdW6>
-8.057

> <VdW12>
8.666

> <Bond>
0.231

> <Angle>
1.341

> <Pdih>
3.137

> <Idih>
0.000

> <Tether>
0.000

$$$$
VeraChem MOL file


 26 25  0  0  0  0  0  0  0  0999 V2000     
   18.8520   18.1915   20.3871 C   0  0  0  0  0  0  0  0  0  0  0  0
   18.5031   18.0849   19.3518 H   0  0  0  0  0  0  0  0  0  0  0  0
   19.4293   17.2920   20.6343 H   0  0  0  0  0  0  0  0  0  0  0  0
   17.9683   18.2231   21.0375 H   0  0  0  0  0  0  0  0  0  0  0  0
   19.7023   19.4728   20.5418 C   0  0  0  0  0  0  0  0  0  0  0  0
   19.1226   20.3291   20.1696 H   0  0  0  0  0  0  0  0  0  0  0  0
   20.5941   19.4048   19.9031 H   0  0  0  0  0  0  0  0  0  0  0  0
   20.1238   19.7562   22.0038 C   0  0  0  0  0  0  0  0  0  0  0  0
   20.6172   20.7372   22.0375 H   0  0  0  0  0  0  0  0  0  0  0  0
   19.2237   19.8453   22.6224 H   0  0  0  0  0  0  0  0  0  0  0  0
   21.0877   18.6875   22.5818 C   0  0  0  0  0  0  0  0  0  0  0  0
   21.9441   18.5979   21.8992 H   0  0  0  0  0  0  0  0  0  0  0  0
   20.6090   17.6998   22.6005 H   0  0  0  0  0  0  0  0  0  0  0  0
   21.6287   19.0316   23.9944 C   0  0  0  0  0  0  0  0  0  0  0  0
   22.6294   18.5885   24.0929 H   0  0  0  0  0  0  0  0  0  0  0  0
   21.7735   20.1161   24.0938 H   0  0  0  0  0  0  0  0  0  0  0  0
   20.7664   18.4981   25.1662 C   0  0  0  0  0  0  0  0  0  0  0  0
   21.2840   18.7192   26.1091 H   0  0  0  0  0  0  0  0  0  0  0  0
   20.6943   17.4043   25.1009 H   0  0  0  0  0  0  0  0  0  0  0  0
   19.3517   19.1006   25.2231 C   0  0  0  0  0  0  0  0  0  0  0  0
   19.4155   20.1920   25.2375 H   0  0  0  0  0  0  0  0  0  0  0  0
   18.7872   18.7961   24.3385 H   0  0  0  0  0  0  0  0  0  0  0  0
   18.5684   18.6607   26.4430 N   0  3  0  0  0  0  0  0  0  0  0  0
   18.4513   17.6427   26.4752 H   0  0  0  0  0  0  0  0  0  0  0  0
   17.6281   19.0703   26.4605 H   0  0  0  0  0  0  0  0  0  0  0  0
   19.0310   18.9389   27.3147 H   0  0  0  0  0  0  0  0  0  0  0  0
  1  2  1  0  0  0  0
  1  3  1  0  0  0  0
  1  4  1  0  0  0  0
  1  5  1  0  0  0  0
  5  6  1  0  0  0  0
  5  7  1  0  0  0  0
  5  8  1  0  0  0  0
  8  9  1  0  0  0  0
  8 10  1  0  0  0  0
  8 11  1  0  0  0  0
 11 12  1  0  0  0  0
 11 13  1  0  0  0  0
 11 14  1  0  0  0  0
 14 15  1  0  0  0  0
 14 16  1  0  0  0  0
 14 17  1  0  0  0  0
 17 18  1  0  0  0  0
 17 19  1  0  0  0  0
 17 20  1  0  0  0  0
 20 21  1  0  0  0  0
 20 22  1  0  0  0  0
 20 23  1  0  0  0  0
 23 24  1  0  0  0  0
 23 25  1  0  0  0  0
 23 26  1  0  0  0  0
M  END
> <VM2 Rank>
97

> <Conf_Id>
1081

> <Probability>
0.03

> <Sum Probability>
99.04

> <Delta G>
3.335

> <G>
51.597

> <E>
19.070

> <-TS>
32.526

> <U+W>
-2.391

> <U>
51.488

> <W>
-53.879

> <W(PB)>
-56.162

> <W(SA)>
2.283

> <Valence>
5.168

> <Coulomb>
45.587

> <VdW>
0.733

> <VdW6>
-7.959

> <VdW12>
8.692

> <Bond>
0.251

> <Angle>
1.360

> <Pdih>
3.557

> <Idih>
0.000

> <Tether>
0.000

$$$$
VeraChem MOL file


 26 25  0  0  0  0  0  0  0  0999 V2000     
   21.0869   18.6127   20.0375 C   0  0  0  0  0  0  0  0  0  0  0  0
   22.0174   18.4014   20.5802 H   0  0  0  0  0  0  0  0  0  0  0  0
   20.4809   17.6982   20.0246 H   0  0  0  0  0  0  0  0  0  0  0  0
   21.3505   18.8491   18.9984 H   0  0  0  0  0  0  0  0  0  0  0  0
   20.3221   19.7902   20.6832 C   0  0  0  0  0  0  0  0  0  0  0  0
   19.3856   19.9668   20.1360 H   0  0  0  0  0  0  0  0  0  0  0  0
   20.9200   20.7056   20.5723 H   0  0  0  0  0  0  0  0  0  0  0  0
   20.0182   19.5731   22.1851 C   0  0  0  0  0  0  0  0  0  0  0  0
   20.9657   19.4311   22.7205 H   0  0  0  0  0  0  0  0  0  0  0  0
   19.5593   20.4876   22.5852 H   0  0  0  0  0  0  0  0  0  0  0  0
   19.0788   18.3712   22.4518 C   0  0  0  0  0  0  0  0  0  0  0  0
   19.6009   17.4340   22.2173 H   0  0  0  0  0  0  0  0  0  0  0  0
   18.2250   18.4272   21.7626 H   0  0  0  0  0  0  0  0  0  0  0  0
   18.5270   18.2957   23.8991 C   0  0  0  0  0  0  0  0  0  0  0  0
   17.9206   19.1851   24.1198 H   0  0  0  0  0  0  0  0  0  0  0  0
   17.8334   17.4446   23.9447 H   0  0  0  0  0  0  0  0  0  0  0  0
   19.6019   18.0995   24.9978 C   0  0  0  0  0  0  0  0  0  0  0  0
   20.3932   17.4295   24.6362 H   0  0  0  0  0  0  0  0  0  0  0  0
   19.1363   17.5953   25.8552 H   0  0  0  0  0  0  0  0  0  0  0  0
   20.2090   19.4257   25.4955 C   0  0  0  0  0  0  0  0  0  0  0  0
   20.6952   19.9525   24.6725 H   0  0  0  0  0  0  0  0  0  0  0  0
   19.4154   20.0663   25.8894 H   0  0  0  0  0  0  0  0  0  0  0  0
   21.2371   19.2310   26.5910 N   0  3  0  0  0  0  0  0  0  0  0  0
   22.0264   18.6570   26.2769 H   0  0  0  0  0  0  0  0  0  0  0  0
   20.8359   18.7681   27.4132 H   0  0  0  0  0  0  0  0  0  0  0  0
   21.6261   20.1243   26.9119 H   0  0  0  0  0  0  0  0  0  0  0  0
  1  2  1  0  0  0  0
  1  3  1  0  0  0  0
  1  4  1  0  0  0  0
  1  5  1  0  0  0  0
  5  6  1  0  0  0  0
  5  7  1  0  0  0  0
  5  8  1  0  0  0  0
  8  9  1  0  0  0  0
  8 10  1  0  0  0  0
  8 11  1  0  0  0  0
 11 12  1  0  0  0  0
 11 13  1  0  0  0  0
 11 14  1  0  0  0  0
 14 15  1  0  0  0  0
 14 16  1  0  0  0  0
 14 17  1  0  0  0  0
 17 18  1  0  0  0  0
 17 19  1  0  0  0  0
 17 20  1  0  0  0  0
 20 21  1  0  0  0  0
 20 22  1  0  0  0  0
 20 23  1  0  0  0  0
 23 24  1  0  0  0  0
 23 25  1  0  0  0  0
 23 26  1  0  0  0  0
M  END
> <VM2 Rank>
98

> <Conf_Id>
524

> <Probability>
0.03

> <Sum Probability>
99.07

> <Delta G>
3.346

> <G>
51.607

> <E>
18.793

> <-TS>
32.815

> <U+W>
-2.669

> <U>
51.327

> <W>
-53.997

> <W(PB)>
-56.277

> <W(SA)>
2.281

> <Valence>
4.992

> <Coulomb>
45.664

> <VdW>
0.672

> <VdW6>
-8.113

> <VdW12>
8.785

> <Bond>
0.231

> <Angle>
1.333

> <Pdih>
3.427

> <Idih>
0.000

> <Tether>
0.000

$$$$
VeraChem MOL file


 26 25  0  0  0  0  0  0  0  0999 V2000     
   19.6946   18.7533   19.3395 C   0  0  0  0  0  0  0  0  0  0  0  0
   20.2782   17.8782   19.0251 H   0  0  0  0  0  0  0  0  0  0  0  0
   18.7297   18.7198   18.8173 H   0  0  0  0  0  0  0  0  0  0  0  0
   20.2258   19.6554   19.0088 H   0  0  0  0  0  0  0  0  0  0  0  0
   19.4866   18.7619   20.8689 C   0  0  0  0  0  0  0  0  0  0  0  0
   18.9274   17.8635   21.1653 H   0  0  0  0  0  0  0  0  0  0  0  0
   18.8665   19.6269   21.1395 H   0  0  0  0  0  0  0  0  0  0  0  0
   20.8339   18.8130   21.6273 C   0  0  0  0  0  0  0  0  0  0  0  0
   21.4668   17.9811   21.2886 H   0  0  0  0  0  0  0  0  0  0  0  0
   21.3714   19.7348   21.3654 H   0  0  0  0  0  0  0  0  0  0  0  0
   20.6808   18.7200   23.1653 C   0  0  0  0  0  0  0  0  0  0  0  0
   21.6833   18.6648   23.6115 H   0  0  0  0  0  0  0  0  0  0  0  0
   20.1685   17.7819   23.4126 H   0  0  0  0  0  0  0  0  0  0  0  0
   19.9153   19.9190   23.7788 C   0  0  0  0  0  0  0  0  0  0  0  0
   20.3211   20.8508   23.3613 H   0  0  0  0  0  0  0  0  0  0  0  0
   18.8597   19.8809   23.4785 H   0  0  0  0  0  0  0  0  0  0  0  0
   19.9984   20.0063   25.3242 C   0  0  0  0  0  0  0  0  0  0  0  0
   19.5051   20.9367   25.6357 H   0  0  0  0  0  0  0  0  0  0  0  0
   21.0440   20.0972   25.6472 H   0  0  0  0  0  0  0  0  0  0  0  0
   19.3141   18.8408   26.0683 C   0  0  0  0  0  0  0  0  0  0  0  0
   19.0885   19.1553   27.0909 H   0  0  0  0  0  0  0  0  0  0  0  0
   18.3713   18.5885   25.5756 H   0  0  0  0  0  0  0  0  0  0  0  0
   20.1573   17.5846   26.1686 N   0  3  0  0  0  0  0  0  0  0  0  0
   19.6662   16.8362   26.6696 H   0  0  0  0  0  0  0  0  0  0  0  0
   21.0339   17.7555   26.6720 H   0  0  0  0  0  0  0  0  0  0  0  0
   20.4048   17.2186   25.2451 H   0  0  0  0  0  0  0  0  0  0  0  0
  1  2  1  0  0  0  0
  1  3  1  0  0  0  0
  1  4  1  0  0  0  0
  1  5  1  0  0  0  0
  5  6  1  0  0  0  0
  5  7  1  0  0  0  0
  5  8  1  0  0  0  0
  8  9  1  0  0  0  0
  8 10  1  0  0  0  0
  8 11  1  0  0  0  0
 11 12  1  0  0  0  0
 11 13  1  0  0  0  0
 11 14  1  0  0  0  0
 14 15  1  0  0  0  0
 14 16  1  0  0  0  0
 14 17  1  0  0  0  0
 17 18  1  0  0  0  0
 17 19  1  0  0  0  0
 17 20  1  0  0  0  0
 20 21  1  0  0  0  0
 20 22  1  0  0  0  0
 20 23  1  0  0  0  0
 23 24  1  0  0  0  0
 23 25  1  0  0  0  0
 23 26  1  0  0  0  0
M  END
> <VM2 Rank>
99

> <Conf_Id>
996

> <Probability>
0.03

> <Sum Probability>
99.10

> <Delta G>
3.346

> <G>
51.608

> <E>
18.966

> <-TS>
32.642

> <U+W>
-2.496

> <U>
51.400

> <W>
-53.897

> <W(PB)>
-56.161

> <W(SA)>
2.265

> <Valence>
4.232

> <Coulomb>
46.515

> <VdW>
0.653

> <VdW6>
-7.962

> <VdW12>
8.615

> <Bond>
0.225

> <Angle>
1.150

> <Pdih>
2.857

> <Idih>
0.000

> <Tether>
0.000

$$$$
VeraChem MOL file


 26 25  0  0  0  0  0  0  0  0999 V2000     
   20.6027   20.3431   20.6457 C   0  0  0  0  0  0  0  0  0  0  0  0
   21.2592   20.3013   21.5234 H   0  0  0  0  0  0  0  0  0  0  0  0
   21.1353   20.9011   19.8648 H   0  0  0  0  0  0  0  0  0  0  0  0
   19.7010   20.9112   20.9088 H   0  0  0  0  0  0  0  0  0  0  0  0
   20.2434   18.9267   20.1464 C   0  0  0  0  0  0  0  0  0  0  0  0
   21.1670   18.3629   19.9546 H   0  0  0  0  0  0  0  0  0  0  0  0
   19.7336   19.0140   19.1767 H   0  0  0  0  0  0  0  0  0  0  0  0
   19.3334   18.1214   21.1088 C   0  0  0  0  0  0  0  0  0  0  0  0
   18.3651   18.6274   21.2250 H   0  0  0  0  0  0  0  0  0  0  0  0
   19.1088   17.1611   20.6242 H   0  0  0  0  0  0  0  0  0  0  0  0
   19.9576   17.8267   22.4978 C   0  0  0  0  0  0  0  0  0  0  0  0
   21.0515   17.7680   22.4139 H   0  0  0  0  0  0  0  0  0  0  0  0
   19.6243   16.8317   22.8240 H   0  0  0  0  0  0  0  0  0  0  0  0
   19.5523   18.8513   23.5857 C   0  0  0  0  0  0  0  0  0  0  0  0
   19.8380   19.8657   23.2828 H   0  0  0  0  0  0  0  0  0  0  0  0
   18.4589   18.8539   23.6945 H   0  0  0  0  0  0  0  0  0  0  0  0
   20.2009   18.5263   24.9493 C   0  0  0  0  0  0  0  0  0  0  0  0
   21.2944   18.5267   24.8477 H   0  0  0  0  0  0  0  0  0  0  0  0
   19.9069   17.5174   25.2681 H   0  0  0  0  0  0  0  0  0  0  0  0
   19.7870   19.5442   26.0266 C   0  0  0  0  0  0  0  0  0  0  0  0
   20.0928   20.5485   25.7211 H   0  0  0  0  0  0  0  0  0  0  0  0
   18.6998   19.5360   26.1426 H   0  0  0  0  0  0  0  0  0  0  0  0
   20.4039   19.2592   27.3807 N   0  3  0  0  0  0  0  0  0  0  0  0
   20.1153   19.9486   28.0835 H   0  0  0  0  0  0  0  0  0  0  0  0
   21.4284   19.2795   27.3459 H   0  0  0  0  0  0  0  0  0  0  0  0
   20.1322   18.3373   27.7380 H   0  0  0  0  0  0  0  0  0  0  0  0
  1  2  1  0  0  0  0
  1  3  1  0  0  0  0
  1  4  1  0  0  0  0
  1  5  1  0  0  0  0
  5  6  1  0  0  0  0
  5  7  1  0  0  0  0
  5  8  1  0  0  0  0
  8  9  1  0  0  0  0
  8 10  1  0  0  0  0
  8 11  1  0  0  0  0
 11 12  1  0  0  0  0
 11 13  1  0  0  0  0
 11 14  1  0  0  0  0
 14 15  1  0  0  0  0
 14 16  1  0  0  0  0
 14 17  1  0  0  0  0
 17 18  1  0  0  0  0
 17 19  1  0  0  0  0
 17 20  1  0  0  0  0
 20 21  1  0  0  0  0
 20 22  1  0  0  0  0
 20 23  1  0  0  0  0
 23 24  1  0  0  0  0
 23 25  1  0  0  0  0
 23 26  1  0  0  0  0
M  END
> <VM2 Rank>
100

> <Conf_Id>
991

> <Probability>
0.03

> <Sum Probability>
99.13

> <Delta G>
3.352

> <G>
51.614

> <E>
18.911

> <-TS>
32.703

> <U+W>
-2.551

> <U>
50.662

> <W>
-53.213

> <W(PB)>
-55.518

> <W(SA)>
2.305

> <Valence>
5.128

> <Coulomb>
44.842

> <VdW>
0.692

> <VdW6>
-7.327

> <VdW12>
8.019

> <Bond>
0.214

> <Angle>
1.153

> <Pdih>
3.761

> <Idih>
0.000

> <Tether>
0.000

$$$$
VeraChem MOL file


 26 25  0  0  0  0  0  0  0  0999 V2000     
   19.0010   18.1508   19.9055 C   0  0  0  0  0  0  0  0  0  0  0  0
   18.3734   19.0070   19.6255 H   0  0  0  0  0  0  0  0  0  0  0  0
   19.7599   18.0130   19.1242 H   0  0  0  0  0  0  0  0  0  0  0  0
   18.3648   17.2564   19.9182 H   0  0  0  0  0  0  0  0  0  0  0  0
   19.6574   18.3722   21.2848 C   0  0  0  0  0  0  0  0  0  0  0  0
   20.2566   17.4898   21.5491 H   0  0  0  0  0  0  0  0  0  0  0  0
   18.8669   18.4671   22.0408 H   0  0  0  0  0  0  0  0  0  0  0  0
   20.5498   19.6342   21.2956 C   0  0  0  0  0  0  0  0  0  0  0  0
   21.2522   19.5812   20.4523 H   0  0  0  0  0  0  0  0  0  0  0  0
   19.9275   20.5223   21.1186 H   0  0  0  0  0  0  0  0  0  0  0  0
   21.3689   19.8303   22.5976 C   0  0  0  0  0  0  0  0  0  0  0  0
   21.9915   20.7258   22.4635 H   0  0  0  0  0  0  0  0  0  0  0  0
   22.0740   18.9979   22.7291 H   0  0  0  0  0  0  0  0  0  0  0  0
   20.5166   20.0228   23.8791 C   0  0  0  0  0  0  0  0  0  0  0  0
   21.0275   20.7449   24.5313 H   0  0  0  0  0  0  0  0  0  0  0  0
   19.5488   20.4767   23.6247 H   0  0  0  0  0  0  0  0  0  0  0  0
   20.3064   18.7164   24.6817 C   0  0  0  0  0  0  0  0  0  0  0  0
   21.2814   18.3099   24.9818 H   0  0  0  0  0  0  0  0  0  0  0  0
   19.8233   17.9540   24.0603 H   0  0  0  0  0  0  0  0  0  0  0  0
   19.4510   18.9624   25.9369 C   0  0  0  0  0  0  0  0  0  0  0  0
   19.9390   19.7038   26.5754 H   0  0  0  0  0  0  0  0  0  0  0  0
   18.4719   19.3514   25.6445 H   0  0  0  0  0  0  0  0  0  0  0  0
   19.2298   17.7097   26.7599 N   0  3  0  0  0  0  0  0  0  0  0  0
   20.1137   17.3082   27.0898 H   0  0  0  0  0  0  0  0  0  0  0  0
   18.7479   16.9803   26.2243 H   0  0  0  0  0  0  0  0  0  0  0  0
   18.6584   17.8964   27.5912 H   0  0  0  0  0  0  0  0  0  0  0  0
  1  2  1  0  0  0  0
  1  3  1  0  0  0  0
  1  4  1  0  0  0  0
  1  5  1  0  0  0  0
  5  6  1  0  0  0  0
  5  7  1  0  0  0  0
  5  8  1  0  0  0  0
  8  9  1  0  0  0  0
  8 10  1  0  0  0  0
  8 11  1  0  0  0  0
 11 12  1  0  0  0  0
 11 13  1  0  0  0  0
 11 14  1  0  0  0  0
 14 15  1  0  0  0  0
 14 16  1  0  0  0  0
 14 17  1  0  0  0  0
 17 18  1  0  0  0  0
 17 19  1  0  0  0  0
 17 20  1  0  0  0  0
 20 21  1  0  0  0  0
 20 22  1  0  0  0  0
 20 23  1  0  0  0  0
 23 24  1  0  0  0  0
 23 25  1  0  0  0  0
 23 26  1  0  0  0  0
M  END
> <VM2 Rank>
101

> <Conf_Id>
1357

> <Probability>
0.03

> <Sum Probability>
99.16

> <Delta G>
3.367

> <G>
51.629

> <E>
18.906

> <-TS>
32.722

> <U+W>
-2.555

> <U>
51.214

> <W>
-53.769

> <W(PB)>
-56.071

> <W(SA)>
2.302

> <Valence>
5.193

> <Coulomb>
45.364

> <VdW>
0.656

> <VdW6>
-7.405

> <VdW12>
8.062

> <Bond>
0.216

> <Angle>
1.176

> <Pdih>
3.801

> <Idih>
0.000

> <Tether>
0.000

$$$$
VeraChem MOL file


 26 25  0  0  0  0  0  0  0  0999 V2000     
   21.4427   19.5815   20.1268 C   0  0  0  0  0  0  0  0  0  0  0  0
   20.8856   19.6619   19.1842 H   0  0  0  0  0  0  0  0  0  0  0  0
   21.5623   20.5913   20.5405 H   0  0  0  0  0  0  0  0  0  0  0  0
   22.4424   19.1917   19.8950 H   0  0  0  0  0  0  0  0  0  0  0  0
   20.7148   18.6563   21.1247 C   0  0  0  0  0  0  0  0  0  0  0  0
   21.3189   18.5641   22.0352 H   0  0  0  0  0  0  0  0  0  0  0  0
   20.6421   17.6472   20.6954 H   0  0  0  0  0  0  0  0  0  0  0  0
   19.2969   19.1802   21.4579 C   0  0  0  0  0  0  0  0  0  0  0  0
   19.3467   20.2131   21.8290 H   0  0  0  0  0  0  0  0  0  0  0  0
   18.7208   19.2221   20.5231 H   0  0  0  0  0  0  0  0  0  0  0  0
   18.5295   18.2869   22.4673 C   0  0  0  0  0  0  0  0  0  0  0  0
   18.8613   17.2430   22.3820 H   0  0  0  0  0  0  0  0  0  0  0  0
   17.4682   18.2833   22.1824 H   0  0  0  0  0  0  0  0  0  0  0  0
   18.6137   18.7547   23.9434 C   0  0  0  0  0  0  0  0  0  0  0  0
   18.1777   19.7594   24.0333 H   0  0  0  0  0  0  0  0  0  0  0  0
   17.9817   18.0923   24.5513 H   0  0  0  0  0  0  0  0  0  0  0  0
   20.0430   18.7615   24.5312 C   0  0  0  0  0  0  0  0  0  0  0  0
   20.6539   19.5133   24.0162 H   0  0  0  0  0  0  0  0  0  0  0  0
   20.5156   17.7837   24.3689 H   0  0  0  0  0  0  0  0  0  0  0  0
   20.0283   19.0791   26.0368 C   0  0  0  0  0  0  0  0  0  0  0  0
   19.5713   20.0586   26.2018 H   0  0  0  0  0  0  0  0  0  0  0  0
   19.4343   18.3288   26.5656 H   0  0  0  0  0  0  0  0  0  0  0  0
   21.4123   19.0989   26.6530 N   0  3  0  0  0  0  0  0  0  0  0  0
   22.0146   19.8052   26.2177 H   0  0  0  0  0  0  0  0  0  0  0  0
   21.8869   18.1953   26.5555 H   0  0  0  0  0  0  0  0  0  0  0  0
   21.3793   19.3119   27.6559 H   0  0  0  0  0  0  0  0  0  0  0  0
  1  2  1  0  0  0  0
  1  3  1  0  0  0  0
  1  4  1  0  0  0  0
  1  5  1  0  0  0  0
  5  6  1  0  0  0  0
  5  7  1  0  0  0  0
  5  8  1  0  0  0  0
  8  9  1  0  0  0  0
  8 10  1  0  0  0  0
  8 11  1  0  0  0  0
 11 12  1  0  0  0  0
 11 13  1  0  0  0  0
 11 14  1  0  0  0  0
 14 15  1  0  0  0  0
 14 16  1  0  0  0  0
 14 17  1  0  0  0  0
 17 18  1  0  0  0  0
 17 19  1  0  0  0  0
 17 20  1  0  0  0  0
 20 21  1  0  0  0  0
 20 22  1  0  0  0  0
 20 23  1  0  0  0  0
 23 24  1  0  0  0  0
 23 25  1  0  0  0  0
 23 26  1  0  0  0  0
M  END
> <VM2 Rank>
102

> <Conf_Id>
1079

> <Probability>
0.03

> <Sum Probability>
99.18

> <Delta G>
3.395

> <G>
51.656

> <E>
18.928

> <-TS>
32.728

> <U+W>
-2.534

> <U>
51.184

> <W>
-53.718

> <W(PB)>
-56.008

> <W(SA)>
2.290

> <Valence>
5.187

> <Coulomb>
45.355

> <VdW>
0.642

> <VdW6>
-7.428

> <VdW12>
8.070

> <Bond>
0.216

> <Angle>
1.173

> <Pdih>
3.799

> <Idih>
0.000

> <Tether>
0.000

$$$$
VeraChem MOL file


 26 25  0  0  0  0  0  0  0  0999 V2000     
   18.9914   17.9656   20.0448 C   0  0  0  0  0  0  0  0  0  0  0  0
   17.9978   18.2416   20.4213 H   0  0  0  0  0  0  0  0  0  0  0  0
   19.1804   18.5378   19.1271 H   0  0  0  0  0  0  0  0  0  0  0  0
   18.9671   16.9008   19.7788 H   0  0  0  0  0  0  0  0  0  0  0  0
   20.0807   18.2383   21.1035 C   0  0  0  0  0  0  0  0  0  0  0  0
   21.0559   17.9200   20.7092 H   0  0  0  0  0  0  0  0  0  0  0  0
   19.8856   17.6192   21.9872 H   0  0  0  0  0  0  0  0  0  0  0  0
   20.1414   19.7369   21.4861 C   0  0  0  0  0  0  0  0  0  0  0  0
   20.3730   20.3112   20.5783 H   0  0  0  0  0  0  0  0  0  0  0  0
   19.1560   20.0874   21.8225 H   0  0  0  0  0  0  0  0  0  0  0  0
   21.2164   20.0581   22.5571 C   0  0  0  0  0  0  0  0  0  0  0  0
   21.6501   21.0400   22.3221 H   0  0  0  0  0  0  0  0  0  0  0  0
   22.0486   19.3440   22.4885 H   0  0  0  0  0  0  0  0  0  0  0  0
   20.6849   20.1201   24.0126 C   0  0  0  0  0  0  0  0  0  0  0  0
   21.5133   20.4206   24.6693 H   0  0  0  0  0  0  0  0  0  0  0  0
   19.9294   20.9141   24.0917 H   0  0  0  0  0  0  0  0  0  0  0  0
   20.0897   18.7922   24.5328 C   0  0  0  0  0  0  0  0  0  0  0  0
   20.8095   17.9774   24.3789 H   0  0  0  0  0  0  0  0  0  0  0  0
   19.1831   18.5435   23.9670 H   0  0  0  0  0  0  0  0  0  0  0  0
   19.7335   18.8850   26.0269 C   0  0  0  0  0  0  0  0  0  0  0  0
   20.6313   19.1184   26.6056 H   0  0  0  0  0  0  0  0  0  0  0  0
   19.0058   19.6859   26.1828 H   0  0  0  0  0  0  0  0  0  0  0  0
   19.1430   17.6028   26.5773 N   0  3  0  0  0  0  0  0  0  0  0  0
   19.7909   16.8135   26.4858 H   0  0  0  0  0  0  0  0  0  0  0  0
   18.2780   17.3414   26.0929 H   0  0  0  0  0  0  0  0  0  0  0  0
   18.9135   17.6865   27.5736 H   0  0  0  0  0  0  0  0  0  0  0  0
  1  2  1  0  0  0  0
  1  3  1  0  0  0  0
  1  4  1  0  0  0  0
  1  5  1  0  0  0  0
  5  6  1  0  0  0  0
  5  7  1  0  0  0  0
  5  8  1  0  0  0  0
  8  9  1  0  0  0  0
  8 10  1  0  0  0  0
  8 11  1  0  0  0  0
 11 12  1  0  0  0  0
 11 13  1  0  0  0  0
 11 14  1  0  0  0  0
 14 15  1  0  0  0  0
 14 16  1  0  0  0  0
 14 17  1  0  0  0  0
 17 18  1  0  0  0  0
 17 19  1  0  0  0  0
 17 20  1  0  0  0  0
 20 21  1  0  0  0  0
 20 22  1  0  0  0  0
 20 23  1  0  0  0  0
 23 24  1  0  0  0  0
 23 25  1  0  0  0  0
 23 26  1  0  0  0  0
M  END
> <VM2 Rank>
103

> <Conf_Id>
732

> <Probability>
0.03

> <Sum Probability>
99.21

> <Delta G>
3.395

> <G>
51.657

> <E>
18.929

> <-TS>
32.728

> <U+W>
-2.533

> <U>
51.184

> <W>
-53.717

> <W(PB)>
-56.005

> <W(SA)>
2.288

> <Valence>
5.187

> <Coulomb>
45.354

> <VdW>
0.642

> <VdW6>
-7.428

> <VdW12>
8.069

> <Bond>
0.216

> <Angle>
1.173

> <Pdih>
3.799

> <Idih>
0.000

> <Tether>
0.000

$$$$
VeraChem MOL file


 26 25  0  0  0  0  0  0  0  0999 V2000     
   20.4757   19.2680   19.3656 C   0  0  0  0  0  0  0  0  0  0  0  0
   21.0643   18.3962   19.0514 H   0  0  0  0  0  0  0  0  0  0  0  0
   19.4539   19.1467   18.9830 H   0  0  0  0  0  0  0  0  0  0  0  0
   20.9104   20.1568   18.8901 H   0  0  0  0  0  0  0  0  0  0  0  0
   20.4785   19.4156   20.9020 C   0  0  0  0  0  0  0  0  0  0  0  0
   19.9155   20.3182   21.1746 H   0  0  0  0  0  0  0  0  0  0  0  0
   21.5095   19.5651   21.2516 H   0  0  0  0  0  0  0  0  0  0  0  0
   19.8663   18.1754   21.5950 C   0  0  0  0  0  0  0  0  0  0  0  0
   18.8206   18.0539   21.2803 H   0  0  0  0  0  0  0  0  0  0  0  0
   20.3969   17.2761   21.2529 H   0  0  0  0  0  0  0  0  0  0  0  0
   19.9403   18.2321   23.1406 C   0  0  0  0  0  0  0  0  0  0  0  0
   20.9917   18.3244   23.4401 H   0  0  0  0  0  0  0  0  0  0  0  0
   19.5759   17.2761   23.5411 H   0  0  0  0  0  0  0  0  0  0  0  0
   19.1120   19.3896   23.7520 C   0  0  0  0  0  0  0  0  0  0  0  0
   19.5761   20.3531   23.5024 H   0  0  0  0  0  0  0  0  0  0  0  0
   18.1161   19.3977   23.2877 H   0  0  0  0  0  0  0  0  0  0  0  0
   18.9272   19.3004   25.2885 C   0  0  0  0  0  0  0  0  0  0  0  0
   18.4175   18.3663   25.5595 H   0  0  0  0  0  0  0  0  0  0  0  0
   18.2525   20.1112   25.5939 H   0  0  0  0  0  0  0  0  0  0  0  0
   20.2320   19.4456   26.0990 C   0  0  0  0  0  0  0  0  0  0  0  0
   20.8574   20.2268   25.6586 H   0  0  0  0  0  0  0  0  0  0  0  0
   19.9844   19.7456   27.1208 H   0  0  0  0  0  0  0  0  0  0  0  0
   21.0491   18.1723   26.1983 N   0  3  0  0  0  0  0  0  0  0  0  0
   21.9062   18.3123   26.7443 H   0  0  0  0  0  0  0  0  0  0  0  0
   21.3307   17.8287   25.2760 H   0  0  0  0  0  0  0  0  0  0  0  0
   20.5239   17.4195   26.6550 H   0  0  0  0  0  0  0  0  0  0  0  0
  1  2  1  0  0  0  0
  1  3  1  0  0  0  0
  1  4  1  0  0  0  0
  1  5  1  0  0  0  0
  5  6  1  0  0  0  0
  5  7  1  0  0  0  0
  5  8  1  0  0  0  0
  8  9  1  0  0  0  0
  8 10  1  0  0  0  0
  8 11  1  0  0  0  0
 11 12  1  0  0  0  0
 11 13  1  0  0  0  0
 11 14  1  0  0  0  0
 14 15  1  0  0  0  0
 14 16  1  0  0  0  0
 14 17  1  0  0  0  0
 17 18  1  0  0  0  0
 17 19  1  0  0  0  0
 17 20  1  0  0  0  0
 20 21  1  0  0  0  0
 20 22  1  0  0  0  0
 20 23  1  0  0  0  0
 23 24  1  0  0  0  0
 23 25  1  0  0  0  0
 23 26  1  0  0  0  0
M  END
> <VM2 Rank>
104

> <Conf_Id>
1366

> <Probability>
0.03

> <Sum Probability>
99.23

> <Delta G>
3.413

> <G>
51.675

> <E>
19.033

> <-TS>
32.642

> <U+W>
-2.429

> <U>
51.400

> <W>
-53.829

> <W(PB)>
-56.113

> <W(SA)>
2.284

> <Valence>
4.232

> <Coulomb>
46.515

> <VdW>
0.653

> <VdW6>
-7.962

> <VdW12>
8.616

> <Bond>
0.225

> <Angle>
1.150

> <Pdih>
2.857

> <Idih>
0.000

> <Tether>
0.000

$$$$
VeraChem MOL file


 26 25  0  0  0  0  0  0  0  0999 V2000     
   21.2753   19.6498   19.9813 C   0  0  0  0  0  0  0  0  0  0  0  0
   21.1398   18.9224   19.1703 H   0  0  0  0  0  0  0  0  0  0  0  0
   20.7489   20.5726   19.7046 H   0  0  0  0  0  0  0  0  0  0  0  0
   22.3462   19.8805   20.0510 H   0  0  0  0  0  0  0  0  0  0  0  0
   20.7497   19.0923   21.3212 C   0  0  0  0  0  0  0  0  0  0  0  0
   20.9383   19.8325   22.1099 H   0  0  0  0  0  0  0  0  0  0  0  0
   21.3121   18.1857   21.5844 H   0  0  0  0  0  0  0  0  0  0  0  0
   19.2395   18.7706   21.2518 C   0  0  0  0  0  0  0  0  0  0  0  0
   18.6769   19.6981   21.0769 H   0  0  0  0  0  0  0  0  0  0  0  0
   19.0512   18.1306   20.3788 H   0  0  0  0  0  0  0  0  0  0  0  0
   18.6769   18.0558   22.5076 C   0  0  0  0  0  0  0  0  0  0  0  0
   19.1580   17.0758   22.6317 H   0  0  0  0  0  0  0  0  0  0  0  0
   17.6160   17.8415   22.3173 H   0  0  0  0  0  0  0  0  0  0  0  0
   18.7754   18.8751   23.8210 C   0  0  0  0  0  0  0  0  0  0  0  0
   18.7507   19.9508   23.5982 H   0  0  0  0  0  0  0  0  0  0  0  0
   17.8812   18.6707   24.4263 H   0  0  0  0  0  0  0  0  0  0  0  0
   20.0205   18.5281   24.6721 C   0  0  0  0  0  0  0  0  0  0  0  0
   20.9394   18.6904   24.0976 H   0  0  0  0  0  0  0  0  0  0  0  0
   19.9969   17.4630   24.9385 H   0  0  0  0  0  0  0  0  0  0  0  0
   20.0722   19.3718   25.9579 C   0  0  0  0  0  0  0  0  0  0  0  0
   20.1131   20.4335   25.6999 H   0  0  0  0  0  0  0  0  0  0  0  0
   19.1700   19.1961   26.5500 H   0  0  0  0  0  0  0  0  0  0  0  0
   21.2715   19.0556   26.8281 N   0  3  0  0  0  0  0  0  0  0  0  0
   22.1556   19.2273   26.3382 H   0  0  0  0  0  0  0  0  0  0  0  0
   21.2778   18.0752   27.1283 H   0  0  0  0  0  0  0  0  0  0  0  0
   21.2858   19.6281   27.6792 H   0  0  0  0  0  0  0  0  0  0  0  0
  1  2  1  0  0  0  0
  1  3  1  0  0  0  0
  1  4  1  0  0  0  0
  1  5  1  0  0  0  0
  5  6  1  0  0  0  0
  5  7  1  0  0  0  0
  5  8  1  0  0  0  0
  8  9  1  0  0  0  0
  8 10  1  0  0  0  0
  8 11  1  0  0  0  0
 11 12  1  0  0  0  0
 11 13  1  0  0  0  0
 11 14  1  0  0  0  0
 14 15  1  0  0  0  0
 14 16  1  0  0  0  0
 14 17  1  0  0  0  0
 17 18  1  0  0  0  0
 17 19  1  0  0  0  0
 17 20  1  0  0  0  0
 20 21  1  0  0  0  0
 20 22  1  0  0  0  0
 20 23  1  0  0  0  0
 23 24  1  0  0  0  0
 23 25  1  0  0  0  0
 23 26  1  0  0  0  0
M  END
> <VM2 Rank>
105

> <Conf_Id>
455

> <Probability>
0.02

> <Sum Probability>
99.26

> <Delta G>
3.421

> <G>
51.682

> <E>
18.960

> <-TS>
32.722

> <U+W>
-2.502

> <U>
51.214

> <W>
-53.716

> <W(PB)>
-56.009

> <W(SA)>
2.294

> <Valence>
5.193

> <Coulomb>
45.364

> <VdW>
0.656

> <VdW6>
-7.405

> <VdW12>
8.062

> <Bond>
0.216

> <Angle>
1.176

> <Pdih>
3.800

> <Idih>
0.000

> <Tether>
0.000

$$$$
VeraChem MOL file


 26 25  0  0  0  0  0  0  0  0999 V2000     
   20.0262   17.9127   20.0020 C   0  0  0  0  0  0  0  0  0  0  0  0
   21.1046   18.1100   20.0453 H   0  0  0  0  0  0  0  0  0  0  0  0
   19.8304   16.9580   20.5071 H   0  0  0  0  0  0  0  0  0  0  0  0
   19.7539   17.7956   18.9451 H   0  0  0  0  0  0  0  0  0  0  0  0
   19.2141   19.0590   20.6463 C   0  0  0  0  0  0  0  0  0  0  0  0
   18.1438   18.8734   20.4797 H   0  0  0  0  0  0  0  0  0  0  0  0
   19.4444   20.0058   20.1381 H   0  0  0  0  0  0  0  0  0  0  0  0
   19.4630   19.2065   22.1667 C   0  0  0  0  0  0  0  0  0  0  0  0
   18.7841   19.9758   22.5594 H   0  0  0  0  0  0  0  0  0  0  0  0
   19.1971   18.2637   22.6614 H   0  0  0  0  0  0  0  0  0  0  0  0
   20.9231   19.5884   22.5134 C   0  0  0  0  0  0  0  0  0  0  0  0
   21.2384   20.4161   21.8633 H   0  0  0  0  0  0  0  0  0  0  0  0
   21.5904   18.7470   22.2837 H   0  0  0  0  0  0  0  0  0  0  0  0
   21.1416   20.0212   23.9865 C   0  0  0  0  0  0  0  0  0  0  0  0
   22.1934   20.3218   24.0904 H   0  0  0  0  0  0  0  0  0  0  0  0
   20.5521   20.9217   24.2078 H   0  0  0  0  0  0  0  0  0  0  0  0
   20.8492   18.9226   25.0395 C   0  0  0  0  0  0  0  0  0  0  0  0
   21.4551   19.1255   25.9326 H   0  0  0  0  0  0  0  0  0  0  0  0
   21.1712   17.9429   24.6622 H   0  0  0  0  0  0  0  0  0  0  0  0
   19.3695   18.8718   25.4674 C   0  0  0  0  0  0  0  0  0  0  0  0
   19.0740   19.8409   25.8783 H   0  0  0  0  0  0  0  0  0  0  0  0
   18.7331   18.6581   24.6069 H   0  0  0  0  0  0  0  0  0  0  0  0
   19.0942   17.8167   26.5192 N   0  3  0  0  0  0  0  0  0  0  0  0
   18.1060   17.8013   26.7941 H   0  0  0  0  0  0  0  0  0  0  0  0
   19.6386   17.9775   27.3730 H   0  0  0  0  0  0  0  0  0  0  0  0
   19.3264   16.8753   26.1862 H   0  0  0  0  0  0  0  0  0  0  0  0
  1  2  1  0  0  0  0
  1  3  1  0  0  0  0
  1  4  1  0  0  0  0
  1  5  1  0  0  0  0
  5  6  1  0  0  0  0
  5  7  1  0  0  0  0
  5  8  1  0  0  0  0
  8  9  1  0  0  0  0
  8 10  1  0  0  0  0
  8 11  1  0  0  0  0
 11 12  1  0  0  0  0
 11 13  1  0  0  0  0
 11 14  1  0  0  0  0
 14 15  1  0  0  0  0
 14 16  1  0  0  0  0
 14 17  1  0  0  0  0
 17 18  1  0  0  0  0
 17 19  1  0  0  0  0
 17 20  1  0  0  0  0
 20 21  1  0  0  0  0
 20 22  1  0  0  0  0
 20 23  1  0  0  0  0
 23 24  1  0  0  0  0
 23 25  1  0  0  0  0
 23 26  1  0  0  0  0
M  END
> <VM2 Rank>
106

> <Conf_Id>
454

> <Probability>
0.02

> <Sum Probability>
99.28

> <Delta G>
3.436

> <G>
51.697

> <E>
18.882

> <-TS>
32.815

> <U+W>
-2.580

> <U>
51.328

> <W>
-53.907

> <W(PB)>
-56.205

> <W(SA)>
2.297

> <Valence>
4.992

> <Coulomb>
45.664

> <VdW>
0.672

> <VdW6>
-8.114

> <VdW12>
8.785

> <Bond>
0.231

> <Angle>
1.333

> <Pdih>
3.427

> <Idih>
0.000

> <Tether>
0.000

$$$$
VeraChem MOL file


 26 25  0  0  0  0  0  0  0  0999 V2000     
   19.9726   18.9637   19.2274 C   0  0  0  0  0  0  0  0  0  0  0  0
   19.3363   19.8467   19.0837 H   0  0  0  0  0  0  0  0  0  0  0  0
   20.8236   19.0458   18.5388 H   0  0  0  0  0  0  0  0  0  0  0  0
   19.3940   18.0752   18.9429 H   0  0  0  0  0  0  0  0  0  0  0  0
   20.4612   18.8643   20.6882 C   0  0  0  0  0  0  0  0  0  0  0  0
   21.0695   19.7483   20.9195 H   0  0  0  0  0  0  0  0  0  0  0  0
   21.1177   17.9893   20.7932 H   0  0  0  0  0  0  0  0  0  0  0  0
   19.2774   18.7514   21.6781 C   0  0  0  0  0  0  0  0  0  0  0  0
   18.6498   19.6509   21.6119 H   0  0  0  0  0  0  0  0  0  0  0  0
   18.6408   17.9094   21.3727 H   0  0  0  0  0  0  0  0  0  0  0  0
   19.7118   18.5266   23.1477 C   0  0  0  0  0  0  0  0  0  0  0  0
   20.3654   17.6453   23.2066 H   0  0  0  0  0  0  0  0  0  0  0  0
   18.8101   18.2936   23.7266 H   0  0  0  0  0  0  0  0  0  0  0  0
   20.4184   19.7527   23.7789 C   0  0  0  0  0  0  0  0  0  0  0  0
   21.2683   20.0496   23.1518 H   0  0  0  0  0  0  0  0  0  0  0  0
   19.7290   20.6082   23.7858 H   0  0  0  0  0  0  0  0  0  0  0  0
   20.9559   19.5133   25.2132 C   0  0  0  0  0  0  0  0  0  0  0  0
   21.4993   20.4159   25.5227 H   0  0  0  0  0  0  0  0  0  0  0  0
   21.6957   18.7018   25.2138 H   0  0  0  0  0  0  0  0  0  0  0  0
   19.8666   19.2369   26.2703 C   0  0  0  0  0  0  0  0  0  0  0  0
   20.2570   19.4942   27.2586 H   0  0  0  0  0  0  0  0  0  0  0  0
   18.9930   19.8653   26.0770 H   0  0  0  0  0  0  0  0  0  0  0  0
   19.4171   17.7901   26.3372 N   0  3  0  0  0  0  0  0  0  0  0  0
   20.1929   17.1627   26.5731 H   0  0  0  0  0  0  0  0  0  0  0  0
   19.0298   17.4698   25.4454 H   0  0  0  0  0  0  0  0  0  0  0  0
   18.6928   17.6498   27.0499 H   0  0  0  0  0  0  0  0  0  0  0  0
  1  2  1  0  0  0  0
  1  3  1  0  0  0  0
  1  4  1  0  0  0  0
  1  5  1  0  0  0  0
  5  6  1  0  0  0  0
  5  7  1  0  0  0  0
  5  8  1  0  0  0  0
  8  9  1  0  0  0  0
  8 10  1  0  0  0  0
  8 11  1  0  0  0  0
 11 12  1  0  0  0  0
 11 13  1  0  0  0  0
 11 14  1  0  0  0  0
 14 15  1  0  0  0  0
 14 16  1  0  0  0  0
 14 17  1  0  0  0  0
 17 18  1  0  0  0  0
 17 19  1  0  0  0  0
 17 20  1  0  0  0  0
 20 21  1  0  0  0  0
 20 22  1  0  0  0  0
 20 23  1  0  0  0  0
 23 24  1  0  0  0  0
 23 25  1  0  0  0  0
 23 26  1  0  0  0  0
M  END
> <VM2 Rank>
107

> <Conf_Id>
1002

> <Probability>
0.02

> <Sum Probability>
99.31

> <Delta G>
3.447

> <G>
51.709

> <E>
19.202

> <-TS>
32.507

> <U+W>
-2.260

> <U>
51.605

> <W>
-53.865

> <W(PB)>
-56.157

> <W(SA)>
2.292

> <Valence>
4.451

> <Coulomb>
46.418

> <VdW>
0.736

> <VdW6>
-7.820

> <VdW12>
8.556

> <Bond>
0.235

> <Angle>
1.295

> <Pdih>
2.922

> <Idih>
0.000

> <Tether>
0.000

$$$$
VeraChem MOL file


 26 25  0  0  0  0  0  0  0  0999 V2000     
   20.0276   17.6561   20.1496 C   0  0  0  0  0  0  0  0  0  0  0  0
   19.9911   16.9687   21.0037 H   0  0  0  0  0  0  0  0  0  0  0  0
   18.9981   17.8631   19.8298 H   0  0  0  0  0  0  0  0  0  0  0  0
   20.5357   17.1346   19.3282 H   0  0  0  0  0  0  0  0  0  0  0  0
   20.7730   18.9631   20.5033 C   0  0  0  0  0  0  0  0  0  0  0  0
   20.8903   19.5621   19.5895 H   0  0  0  0  0  0  0  0  0  0  0  0
   21.7893   18.7271   20.8484 H   0  0  0  0  0  0  0  0  0  0  0  0
   20.0438   19.8187   21.5673 C   0  0  0  0  0  0  0  0  0  0  0  0
   20.5828   20.7696   21.6796 H   0  0  0  0  0  0  0  0  0  0  0  0
   19.0383   20.0741   21.2053 H   0  0  0  0  0  0  0  0  0  0  0  0
   19.9425   19.1290   22.9489 C   0  0  0  0  0  0  0  0  0  0  0  0
   20.9485   18.8289   23.2664 H   0  0  0  0  0  0  0  0  0  0  0  0
   19.3355   18.2179   22.8661 H   0  0  0  0  0  0  0  0  0  0  0  0
   19.3158   20.0650   24.0094 C   0  0  0  0  0  0  0  0  0  0  0  0
   19.9814   20.9223   24.1810 H   0  0  0  0  0  0  0  0  0  0  0  0
   18.3801   20.4793   23.6091 H   0  0  0  0  0  0  0  0  0  0  0  0
   18.9989   19.3793   25.3631 C   0  0  0  0  0  0  0  0  0  0  0  0
   18.2837   18.5588   25.2180 H   0  0  0  0  0  0  0  0  0  0  0  0
   18.4894   20.1137   26.0009 H   0  0  0  0  0  0  0  0  0  0  0  0
   20.2379   18.8712   26.1294 C   0  0  0  0  0  0  0  0  0  0  0  0
   21.0526   19.5947   26.0396 H   0  0  0  0  0  0  0  0  0  0  0  0
   19.9858   18.7743   27.1889 H   0  0  0  0  0  0  0  0  0  0  0  0
   20.7416   17.5166   25.6701 N   0  3  0  0  0  0  0  0  0  0  0  0
   21.5656   17.2171   26.2027 H   0  0  0  0  0  0  0  0  0  0  0  0
   21.0068   17.5250   24.6813 H   0  0  0  0  0  0  0  0  0  0  0  0
   20.0299   16.7880   25.7870 H   0  0  0  0  0  0  0  0  0  0  0  0
  1  2  1  0  0  0  0
  1  3  1  0  0  0  0
  1  4  1  0  0  0  0
  1  5  1  0  0  0  0
  5  6  1  0  0  0  0
  5  7  1  0  0  0  0
  5  8  1  0  0  0  0
  8  9  1  0  0  0  0
  8 10  1  0  0  0  0
  8 11  1  0  0  0  0
 11 12  1  0  0  0  0
 11 13  1  0  0  0  0
 11 14  1  0  0  0  0
 14 15  1  0  0  0  0
 14 16  1  0  0  0  0
 14 17  1  0  0  0  0
 17 18  1  0  0  0  0
 17 19  1  0  0  0  0
 17 20  1  0  0  0  0
 20 21  1  0  0  0  0
 20 22  1  0  0  0  0
 20 23  1  0  0  0  0
 23 24  1  0  0  0  0
 23 25  1  0  0  0  0
 23 26  1  0  0  0  0
M  END
> <VM2 Rank>
108

> <Conf_Id>
1306

> <Probability>
0.02

> <Sum Probability>
99.33

> <Delta G>
3.492

> <G>
51.754

> <E>
19.125

> <-TS>
32.628

> <U+W>
-2.336

> <U>
51.553

> <W>
-53.890

> <W(PB)>
-56.153

> <W(SA)>
2.263

> <Valence>
4.248

> <Coulomb>
46.644

> <VdW>
0.661

> <VdW6>
-7.942

> <VdW12>
8.602

> <Bond>
0.222

> <Angle>
1.190

> <Pdih>
2.837

> <Idih>
0.000

> <Tether>
0.000

$$$$
VeraChem MOL file


 26 25  0  0  0  0  0  0  0  0999 V2000     
   18.9907   19.9250   20.6637 C   0  0  0  0  0  0  0  0  0  0  0  0
   19.3634   20.8533   21.1155 H   0  0  0  0  0  0  0  0  0  0  0  0
   18.3778   20.1968   19.7946 H   0  0  0  0  0  0  0  0  0  0  0  0
   18.3325   19.4241   21.3841 H   0  0  0  0  0  0  0  0  0  0  0  0
   20.1558   19.0062   20.2358 C   0  0  0  0  0  0  0  0  0  0  0  0
   20.6841   19.4763   19.3946 H   0  0  0  0  0  0  0  0  0  0  0  0
   19.7508   18.0603   19.8499 H   0  0  0  0  0  0  0  0  0  0  0  0
   21.1834   18.7120   21.3584 C   0  0  0  0  0  0  0  0  0  0  0  0
   21.9821   18.0968   20.9214 H   0  0  0  0  0  0  0  0  0  0  0  0
   21.6697   19.6436   21.6788 H   0  0  0  0  0  0  0  0  0  0  0  0
   20.6074   17.9554   22.5838 C   0  0  0  0  0  0  0  0  0  0  0  0
   21.3786   17.2705   22.9627 H   0  0  0  0  0  0  0  0  0  0  0  0
   19.7652   17.3221   22.2728 H   0  0  0  0  0  0  0  0  0  0  0  0
   20.1828   18.8908   23.7424 C   0  0  0  0  0  0  0  0  0  0  0  0
   21.0535   19.4749   24.0686 H   0  0  0  0  0  0  0  0  0  0  0  0
   19.4330   19.6123   23.3968 H   0  0  0  0  0  0  0  0  0  0  0  0
   19.6092   18.0949   24.9386 C   0  0  0  0  0  0  0  0  0  0  0  0
   20.3640   17.3961   25.3231 H   0  0  0  0  0  0  0  0  0  0  0  0
   18.7627   17.4848   24.5963 H   0  0  0  0  0  0  0  0  0  0  0  0
   19.1222   19.0062   26.0816 C   0  0  0  0  0  0  0  0  0  0  0  0
   18.3749   19.7075   25.7005 H   0  0  0  0  0  0  0  0  0  0  0  0
   18.6522   18.3953   26.8572 H   0  0  0  0  0  0  0  0  0  0  0  0
   20.2295   19.8084   26.7367 N   0  3  0  0  0  0  0  0  0  0  0  0
   19.8746   20.3939   27.5006 H   0  0  0  0  0  0  0  0  0  0  0  0
   20.6914   20.4336   26.0691 H   0  0  0  0  0  0  0  0  0  0  0  0
   20.9536   19.2022   27.1357 H   0  0  0  0  0  0  0  0  0  0  0  0
  1  2  1  0  0  0  0
  1  3  1  0  0  0  0
  1  4  1  0  0  0  0
  1  5  1  0  0  0  0
  5  6  1  0  0  0  0
  5  7  1  0  0  0  0
  5  8  1  0  0  0  0
  8  9  1  0  0  0  0
  8 10  1  0  0  0  0
  8 11  1  0  0  0  0
 11 12  1  0  0  0  0
 11 13  1  0  0  0  0
 11 14  1  0  0  0  0
 14 15  1  0  0  0  0
 14 16  1  0  0  0  0
 14 17  1  0  0  0  0
 17 18  1  0  0  0  0
 17 19  1  0  0  0  0
 17 20  1  0  0  0  0
 20 21  1  0  0  0  0
 20 22  1  0  0  0  0
 20 23  1  0  0  0  0
 23 24  1  0  0  0  0
 23 25  1  0  0  0  0
 23 26  1  0  0  0  0
M  END
> <VM2 Rank>
109

> <Conf_Id>
804

> <Probability>
0.02

> <Sum Probability>
99.35

> <Delta G>
3.526

> <G>
51.788

> <E>
18.982

> <-TS>
32.805

> <U+W>
-2.480

> <U>
51.297

> <W>
-53.776

> <W(PB)>
-56.033

> <W(SA)>
2.257

> <Valence>
5.228

> <Coulomb>
45.276

> <VdW>
0.793

> <VdW6>
-7.860

> <VdW12>
8.653

> <Bond>
0.234

> <Angle>
1.197

> <Pdih>
3.797

> <Idih>
0.000

> <Tether>
0.000

$$$$
VeraChem MOL file


 26 25  0  0  0  0  0  0  0  0999 V2000     
   21.3143   18.5038   20.1925 C   0  0  0  0  0  0  0  0  0  0  0  0
   21.5443   19.5406   19.9146 H   0  0  0  0  0  0  0  0  0  0  0  0
   21.9201   18.2396   21.0680 H   0  0  0  0  0  0  0  0  0  0  0  0
   21.6313   17.8563   19.3647 H   0  0  0  0  0  0  0  0  0  0  0  0
   19.8045   18.3251   20.4710 C   0  0  0  0  0  0  0  0  0  0  0  0
   19.6051   17.2882   20.7755 H   0  0  0  0  0  0  0  0  0  0  0  0
   19.2508   18.4821   19.5347 H   0  0  0  0  0  0  0  0  0  0  0  0
   19.2566   19.3001   21.5410 C   0  0  0  0  0  0  0  0  0  0  0  0
   19.4347   20.3352   21.2186 H   0  0  0  0  0  0  0  0  0  0  0  0
   18.1661   19.1776   21.5990 H   0  0  0  0  0  0  0  0  0  0  0  0
   19.8654   19.0782   22.9463 C   0  0  0  0  0  0  0  0  0  0  0  0
   20.9446   19.2778   22.9198 H   0  0  0  0  0  0  0  0  0  0  0  0
   19.7301   18.0262   23.2258 H   0  0  0  0  0  0  0  0  0  0  0  0
   19.2035   19.9909   24.0056 C   0  0  0  0  0  0  0  0  0  0  0  0
   19.2101   21.0260   23.6368 H   0  0  0  0  0  0  0  0  0  0  0  0
   18.1464   19.7135   24.1198 H   0  0  0  0  0  0  0  0  0  0  0  0
   19.8947   19.9694   25.3929 C   0  0  0  0  0  0  0  0  0  0  0  0
   19.3915   20.7080   26.0309 H   0  0  0  0  0  0  0  0  0  0  0  0
   20.9364   20.3061   25.3065 H   0  0  0  0  0  0  0  0  0  0  0  0
   19.8378   18.6077   26.1161 C   0  0  0  0  0  0  0  0  0  0  0  0
   19.9766   18.7684   27.1886 H   0  0  0  0  0  0  0  0  0  0  0  0
   18.8569   18.1485   25.9664 H   0  0  0  0  0  0  0  0  0  0  0  0
   20.9043   17.6238   25.6756 N   0  3  0  0  0  0  0  0  0  0  0  0
   20.8300   16.7327   26.1784 H   0  0  0  0  0  0  0  0  0  0  0  0
   21.8480   17.9856   25.8478 H   0  0  0  0  0  0  0  0  0  0  0  0
   20.8381   17.4138   24.6758 H   0  0  0  0  0  0  0  0  0  0  0  0
  1  2  1  0  0  0  0
  1  3  1  0  0  0  0
  1  4  1  0  0  0  0
  1  5  1  0  0  0  0
  5  6  1  0  0  0  0
  5  7  1  0  0  0  0
  5  8  1  0  0  0  0
  8  9  1  0  0  0  0
  8 10  1  0  0  0  0
  8 11  1  0  0  0  0
 11 12  1  0  0  0  0
 11 13  1  0  0  0  0
 11 14  1  0  0  0  0
 14 15  1  0  0  0  0
 14 16  1  0  0  0  0
 14 17  1  0  0  0  0
 17 18  1  0  0  0  0
 17 19  1  0  0  0  0
 17 20  1  0  0  0  0
 20 21  1  0  0  0  0
 20 22  1  0  0  0  0
 20 23  1  0  0  0  0
 23 24  1  0  0  0  0
 23 25  1  0  0  0  0
 23 26  1  0  0  0  0
M  END
> <VM2 Rank>
110

> <Conf_Id>
1074

> <Probability>
0.02

> <Sum Probability>
99.37

> <Delta G>
3.549

> <G>
51.811

> <E>
19.184

> <-TS>
32.627

> <U+W>
-2.278

> <U>
51.553

> <W>
-53.830

> <W(PB)>
-56.118

> <W(SA)>
2.288

> <Valence>
4.248

> <Coulomb>
46.644

> <VdW>
0.661

> <VdW6>
-7.941

> <VdW12>
8.602

> <Bond>
0.222

> <Angle>
1.189

> <Pdih>
2.837

> <Idih>
0.000

> <Tether>
0.000

$$$$
VeraChem MOL file


 26 25  0  0  0  0  0  0  0  0999 V2000     
   19.6132   20.3360   20.6846 C   0  0  0  0  0  0  0  0  0  0  0  0
   18.5932   20.3451   21.0899 H   0  0  0  0  0  0  0  0  0  0  0  0
   20.2981   20.7213   21.4499 H   0  0  0  0  0  0  0  0  0  0  0  0
   19.6442   21.0328   19.8370 H   0  0  0  0  0  0  0  0  0  0  0  0
   20.0205   18.9171   20.2313 C   0  0  0  0  0  0  0  0  0  0  0  0
   21.0663   18.9286   19.8940 H   0  0  0  0  0  0  0  0  0  0  0  0
   19.4206   18.6426   19.3524 H   0  0  0  0  0  0  0  0  0  0  0  0
   19.8356   17.8226   21.3133 C   0  0  0  0  0  0  0  0  0  0  0  0
   18.7741   17.7327   21.5820 H   0  0  0  0  0  0  0  0  0  0  0  0
   20.1079   16.8600   20.8587 H   0  0  0  0  0  0  0  0  0  0  0  0
   20.6996   18.0162   22.5869 C   0  0  0  0  0  0  0  0  0  0  0  0
   21.6262   18.5500   22.3350 H   0  0  0  0  0  0  0  0  0  0  0  0
   21.0087   17.0264   22.9503 H   0  0  0  0  0  0  0  0  0  0  0  0
   19.9529   18.7390   23.7348 C   0  0  0  0  0  0  0  0  0  0  0  0
   19.6003   19.7226   23.4025 H   0  0  0  0  0  0  0  0  0  0  0  0
   19.0595   18.1591   24.0019 H   0  0  0  0  0  0  0  0  0  0  0  0
   20.8533   18.9155   24.9802 C   0  0  0  0  0  0  0  0  0  0  0  0
   21.7619   19.4632   24.6967 H   0  0  0  0  0  0  0  0  0  0  0  0
   21.1811   17.9350   25.3505 H   0  0  0  0  0  0  0  0  0  0  0  0
   20.1540   19.6869   26.1162 C   0  0  0  0  0  0  0  0  0  0  0  0
   20.8634   19.8539   26.9313 H   0  0  0  0  0  0  0  0  0  0  0  0
   19.8211   20.6614   25.7489 H   0  0  0  0  0  0  0  0  0  0  0  0
   18.9519   18.9658   26.6937 N   0  3  0  0  0  0  0  0  0  0  0  0
   19.2057   18.0494   27.0769 H   0  0  0  0  0  0  0  0  0  0  0  0
   18.2274   18.8087   25.9864 H   0  0  0  0  0  0  0  0  0  0  0  0
   18.5178   19.4990   27.4551 H   0  0  0  0  0  0  0  0  0  0  0  0
  1  2  1  0  0  0  0
  1  3  1  0  0  0  0
  1  4  1  0  0  0  0
  1  5  1  0  0  0  0
  5  6  1  0  0  0  0
  5  7  1  0  0  0  0
  5  8  1  0  0  0  0
  8  9  1  0  0  0  0
  8 10  1  0  0  0  0
  8 11  1  0  0  0  0
 11 12  1  0  0  0  0
 11 13  1  0  0  0  0
 11 14  1  0  0  0  0
 14 15  1  0  0  0  0
 14 16  1  0  0  0  0
 14 17  1  0  0  0  0
 17 18  1  0  0  0  0
 17 19  1  0  0  0  0
 17 20  1  0  0  0  0
 20 21  1  0  0  0  0
 20 22  1  0  0  0  0
 20 23  1  0  0  0  0
 23 24  1  0  0  0  0
 23 25  1  0  0  0  0
 23 26  1  0  0  0  0
M  END
> <VM2 Rank>
111

> <Conf_Id>
533

> <Probability>
0.02

> <Sum Probability>
99.39

> <Delta G>
3.554

> <G>
51.815

> <E>
19.010

> <-TS>
32.805

> <U+W>
-2.452

> <U>
51.297

> <W>
-53.749

> <W(PB)>
-56.016

> <W(SA)>
2.267

> <Valence>
5.228

> <Coulomb>
45.276

> <VdW>
0.793

> <VdW6>
-7.860

> <VdW12>
8.653

> <Bond>
0.234

> <Angle>
1.197

> <Pdih>
3.797

> <Idih>
0.000

> <Tether>
0.000

$$$$
VeraChem MOL file


 26 25  0  0  0  0  0  0  0  0999 V2000     
   20.1782   19.0996   19.2343 C   0  0  0  0  0  0  0  0  0  0  0  0
   19.6242   20.0369   19.0935 H   0  0  0  0  0  0  0  0  0  0  0  0
   21.2348   19.2890   19.0043 H   0  0  0  0  0  0  0  0  0  0  0  0
   19.8001   18.3717   18.5046 H   0  0  0  0  0  0  0  0  0  0  0  0
   20.0095   18.5668   20.6730 C   0  0  0  0  0  0  0  0  0  0  0  0
   20.5500   17.6153   20.7741 H   0  0  0  0  0  0  0  0  0  0  0  0
   18.9478   18.3500   20.8486 H   0  0  0  0  0  0  0  0  0  0  0  0
   20.5326   19.5789   21.7201 C   0  0  0  0  0  0  0  0  0  0  0  0
   21.5703   19.8404   21.4705 H   0  0  0  0  0  0  0  0  0  0  0  0
   19.9565   20.5122   21.6557 H   0  0  0  0  0  0  0  0  0  0  0  0
   20.5001   19.0459   23.1740 C   0  0  0  0  0  0  0  0  0  0  0  0
   21.0414   19.7644   23.8012 H   0  0  0  0  0  0  0  0  0  0  0  0
   21.0499   18.0963   23.2294 H   0  0  0  0  0  0  0  0  0  0  0  0
   19.0670   18.8613   23.7337 C   0  0  0  0  0  0  0  0  0  0  0  0
   18.5518   19.8316   23.7463 H   0  0  0  0  0  0  0  0  0  0  0  0
   18.4897   18.2169   23.0590 H   0  0  0  0  0  0  0  0  0  0  0  0
   19.0090   18.2293   25.1481 C   0  0  0  0  0  0  0  0  0  0  0  0
   19.4637   17.2298   25.1393 H   0  0  0  0  0  0  0  0  0  0  0  0
   17.9520   18.0765   25.4041 H   0  0  0  0  0  0  0  0  0  0  0  0
   19.6412   19.0885   26.2628 C   0  0  0  0  0  0  0  0  0  0  0  0
   19.4161   20.1445   26.0910 H   0  0  0  0  0  0  0  0  0  0  0  0
   19.2055   18.8011   27.2235 H   0  0  0  0  0  0  0  0  0  0  0  0
   21.1434   18.9288   26.3951 N   0  3  0  0  0  0  0  0  0  0  0  0
   21.6314   19.1855   25.5326 H   0  0  0  0  0  0  0  0  0  0  0  0
   21.4040   17.9617   26.6140 H   0  0  0  0  0  0  0  0  0  0  0  0
   21.5236   19.5171   27.1447 H   0  0  0  0  0  0  0  0  0  0  0  0
  1  2  1  0  0  0  0
  1  3  1  0  0  0  0
  1  4  1  0  0  0  0
  1  5  1  0  0  0  0
  5  6  1  0  0  0  0
  5  7  1  0  0  0  0
  5  8  1  0  0  0  0
  8  9  1  0  0  0  0
  8 10  1  0  0  0  0
  8 11  1  0  0  0  0
 11 12  1  0  0  0  0
 11 13  1  0  0  0  0
 11 14  1  0  0  0  0
 14 15  1  0  0  0  0
 14 16  1  0  0  0  0
 14 17  1  0  0  0  0
 17 18  1  0  0  0  0
 17 19  1  0  0  0  0
 17 20  1  0  0  0  0
 20 21  1  0  0  0  0
 20 22  1  0  0  0  0
 20 23  1  0  0  0  0
 23 24  1  0  0  0  0
 23 25  1  0  0  0  0
 23 26  1  0  0  0  0
M  END
> <VM2 Rank>
112

> <Conf_Id>
1004

> <Probability>
0.02

> <Sum Probability>
99.41

> <Delta G>
3.554

> <G>
51.816

> <E>
19.310

> <-TS>
32.506

> <U+W>
-2.152

> <U>
51.605

> <W>
-53.757

> <W(PB)>
-56.048

> <W(SA)>
2.291

> <Valence>
4.452

> <Coulomb>
46.417

> <VdW>
0.736

> <VdW6>
-7.820

> <VdW12>
8.556

> <Bond>
0.235

> <Angle>
1.296

> <Pdih>
2.921

> <Idih>
0.000

> <Tether>
0.000

$$$$
VeraChem MOL file


 26 25  0  0  0  0  0  0  0  0999 V2000     
   18.8431   18.0883   20.3481 C   0  0  0  0  0  0  0  0  0  0  0  0
   18.5976   17.4927   21.2358 H   0  0  0  0  0  0  0  0  0  0  0  0
   18.1251   18.9157   20.2786 H   0  0  0  0  0  0  0  0  0  0  0  0
   18.6996   17.4451   19.4702 H   0  0  0  0  0  0  0  0  0  0  0  0
   20.2952   18.6152   20.4002 C   0  0  0  0  0  0  0  0  0  0  0  0
   20.5325   19.0930   19.4393 H   0  0  0  0  0  0  0  0  0  0  0  0
   20.9913   17.7712   20.5037 H   0  0  0  0  0  0  0  0  0  0  0  0
   20.5396   19.6381   21.5359 C   0  0  0  0  0  0  0  0  0  0  0  0
   21.5562   20.0406   21.4280 H   0  0  0  0  0  0  0  0  0  0  0  0
   19.8557   20.4897   21.4163 H   0  0  0  0  0  0  0  0  0  0  0  0
   20.3807   19.0360   22.9527 C   0  0  0  0  0  0  0  0  0  0  0  0
   21.0347   18.1587   23.0521 H   0  0  0  0  0  0  0  0  0  0  0  0
   19.3475   18.6947   23.0828 H   0  0  0  0  0  0  0  0  0  0  0  0
   20.7225   20.0676   24.0539 C   0  0  0  0  0  0  0  0  0  0  0  0
   21.7024   20.5134   23.8335 H   0  0  0  0  0  0  0  0  0  0  0  0
   19.9969   20.8920   24.0208 H   0  0  0  0  0  0  0  0  0  0  0  0
   20.7726   19.4819   25.4883 C   0  0  0  0  0  0  0  0  0  0  0  0
   21.0957   20.2823   26.1672 H   0  0  0  0  0  0  0  0  0  0  0  0
   21.5417   18.7011   25.5559 H   0  0  0  0  0  0  0  0  0  0  0  0
   19.4240   18.9415   26.0075 C   0  0  0  0  0  0  0  0  0  0  0  0
   19.4431   18.9280   27.1006 H   0  0  0  0  0  0  0  0  0  0  0  0
   18.6125   19.6023   25.6909 H   0  0  0  0  0  0  0  0  0  0  0  0
   19.1033   17.5304   25.5544 N   0  3  0  0  0  0  0  0  0  0  0  0
   18.1986   17.2110   25.9176 H   0  0  0  0  0  0  0  0  0  0  0  0
   19.8080   16.8594   25.8776 H   0  0  0  0  0  0  0  0  0  0  0  0
   19.0627   17.4587   24.5340 H   0  0  0  0  0  0  0  0  0  0  0  0
  1  2  1  0  0  0  0
  1  3  1  0  0  0  0
  1  4  1  0  0  0  0
  1  5  1  0  0  0  0
  5  6  1  0  0  0  0
  5  7  1  0  0  0  0
  5  8  1  0  0  0  0
  8  9  1  0  0  0  0
  8 10  1  0  0  0  0
  8 11  1  0  0  0  0
 11 12  1  0  0  0  0
 11 13  1  0  0  0  0
 11 14  1  0  0  0  0
 14 15  1  0  0  0  0
 14 16  1  0  0  0  0
 14 17  1  0  0  0  0
 17 18  1  0  0  0  0
 17 19  1  0  0  0  0
 17 20  1  0  0  0  0
 20 21  1  0  0  0  0
 20 22  1  0  0  0  0
 20 23  1  0  0  0  0
 23 24  1  0  0  0  0
 23 25  1  0  0  0  0
 23 26  1  0  0  0  0
M  END
> <VM2 Rank>
113

> <Conf_Id>
672

> <Probability>
0.02

> <Sum Probability>
99.43

> <Delta G>
3.563

> <G>
51.825

> <E>
19.217

> <-TS>
32.608

> <U+W>
-2.245

> <U>
51.693

> <W>
-53.938

> <W(PB)>
-56.182

> <W(SA)>
2.244

> <Valence>
4.261

> <Coulomb>
46.778

> <VdW>
0.653

> <VdW6>
-7.961

> <VdW12>
8.615

> <Bond>
0.225

> <Angle>
1.192

> <Pdih>
2.844

> <Idih>
0.000

> <Tether>
0.000

$$$$
VeraChem MOL file


 26 25  0  0  0  0  0  0  0  0999 V2000     
   19.3988   20.5646   20.6400 C   0  0  0  0  0  0  0  0  0  0  0  0
   19.6440   21.3732   21.3408 H   0  0  0  0  0  0  0  0  0  0  0  0
   20.1116   20.6069   19.8061 H   0  0  0  0  0  0  0  0  0  0  0  0
   18.3968   20.7604   20.2367 H   0  0  0  0  0  0  0  0  0  0  0  0
   19.4452   19.1904   21.3407 C   0  0  0  0  0  0  0  0  0  0  0  0
   19.1650   18.4059   20.6241 H   0  0  0  0  0  0  0  0  0  0  0  0
   18.6922   19.1718   22.1388 H   0  0  0  0  0  0  0  0  0  0  0  0
   20.8503   18.8913   21.9151 C   0  0  0  0  0  0  0  0  0  0  0  0
   21.5821   18.9416   21.0971 H   0  0  0  0  0  0  0  0  0  0  0  0
   21.1479   19.6733   22.6246 H   0  0  0  0  0  0  0  0  0  0  0  0
   20.9647   17.4974   22.5815 C   0  0  0  0  0  0  0  0  0  0  0  0
   22.0049   17.3465   22.9014 H   0  0  0  0  0  0  0  0  0  0  0  0
   20.7749   16.7286   21.8198 H   0  0  0  0  0  0  0  0  0  0  0  0
   20.0272   17.2337   23.7913 C   0  0  0  0  0  0  0  0  0  0  0  0
   18.9742   17.2649   23.4815 H   0  0  0  0  0  0  0  0  0  0  0  0
   20.2024   16.1999   24.1197 H   0  0  0  0  0  0  0  0  0  0  0  0
   20.2566   18.1638   25.0097 C   0  0  0  0  0  0  0  0  0  0  0  0
   21.3284   18.3696   25.1300 H   0  0  0  0  0  0  0  0  0  0  0  0
   19.9394   17.6333   25.9174 H   0  0  0  0  0  0  0  0  0  0  0  0
   19.4653   19.4835   24.9275 C   0  0  0  0  0  0  0  0  0  0  0  0
   19.7619   20.0484   24.0419 H   0  0  0  0  0  0  0  0  0  0  0  0
   18.3968   19.2650   24.8508 H   0  0  0  0  0  0  0  0  0  0  0  0
   19.6730   20.3743   26.1351 N   0  3  0  0  0  0  0  0  0  0  0  0
   20.6568   20.6391   26.2498 H   0  0  0  0  0  0  0  0  0  0  0  0
   19.3814   19.9141   27.0036 H   0  0  0  0  0  0  0  0  0  0  0  0
   19.1353   21.2449   26.0637 H   0  0  0  0  0  0  0  0  0  0  0  0
  1  2  1  0  0  0  0
  1  3  1  0  0  0  0
  1  4  1  0  0  0  0
  1  5  1  0  0  0  0
  5  6  1  0  0  0  0
  5  7  1  0  0  0  0
  5  8  1  0  0  0  0
  8  9  1  0  0  0  0
  8 10  1  0  0  0  0
  8 11  1  0  0  0  0
 11 12  1  0  0  0  0
 11 13  1  0  0  0  0
 11 14  1  0  0  0  0
 14 15  1  0  0  0  0
 14 16  1  0  0  0  0
 14 17  1  0  0  0  0
 17 18  1  0  0  0  0
 17 19  1  0  0  0  0
 17 20  1  0  0  0  0
 20 21  1  0  0  0  0
 20 22  1  0  0  0  0
 20 23  1  0  0  0  0
 23 24  1  0  0  0  0
 23 25  1  0  0  0  0
 23 26  1  0  0  0  0
M  END
> <VM2 Rank>
114

> <Conf_Id>
238

> <Probability>
0.02

> <Sum Probability>
99.45

> <Delta G>
3.578

> <G>
51.840

> <E>
18.628

> <-TS>
33.212

> <U+W>
-2.834

> <U>
51.403

> <W>
-54.237

> <W(PB)>
-56.493

> <W(SA)>
2.256

> <Valence>
5.069

> <Coulomb>
46.079

> <VdW>
0.255

> <VdW6>
-8.819

> <VdW12>
9.074

> <Bond>
0.244

> <Angle>
1.725

> <Pdih>
3.100

> <Idih>
0.000

> <Tether>
0.000

$$$$
VeraChem MOL file


 26 25  0  0  0  0  0  0  0  0999 V2000     
   18.8650   20.2119   20.6224 C   0  0  0  0  0  0  0  0  0  0  0  0
   18.5861   19.5989   19.7555 H   0  0  0  0  0  0  0  0  0  0  0  0
   17.9934   20.2824   21.2862 H   0  0  0  0  0  0  0  0  0  0  0  0
   19.0955   21.2222   20.2603 H   0  0  0  0  0  0  0  0  0  0  0  0
   20.0777   19.6084   21.3619 C   0  0  0  0  0  0  0  0  0  0  0  0
   20.3522   20.2688   22.1943 H   0  0  0  0  0  0  0  0  0  0  0  0
   20.9416   19.5801   20.6834 H   0  0  0  0  0  0  0  0  0  0  0  0
   19.7767   18.1817   21.8792 C   0  0  0  0  0  0  0  0  0  0  0  0
   18.9086   18.1932   22.5498 H   0  0  0  0  0  0  0  0  0  0  0  0
   19.4825   17.5538   21.0270 H   0  0  0  0  0  0  0  0  0  0  0  0
   20.9825   17.5091   22.5821 C   0  0  0  0  0  0  0  0  0  0  0  0
   21.7988   17.4053   21.8540 H   0  0  0  0  0  0  0  0  0  0  0  0
   20.6997   16.4838   22.8577 H   0  0  0  0  0  0  0  0  0  0  0  0
   21.5349   18.2302   23.8418 C   0  0  0  0  0  0  0  0  0  0  0  0
   22.4015   17.6533   24.1934 H   0  0  0  0  0  0  0  0  0  0  0  0
   21.9323   19.2200   23.5805 H   0  0  0  0  0  0  0  0  0  0  0  0
   20.5335   18.3469   25.0190 C   0  0  0  0  0  0  0  0  0  0  0  0
   21.1028   18.4023   25.9564 H   0  0  0  0  0  0  0  0  0  0  0  0
   19.9197   17.4387   25.0827 H   0  0  0  0  0  0  0  0  0  0  0  0
   19.6336   19.5948   24.9331 C   0  0  0  0  0  0  0  0  0  0  0  0
   20.2557   20.4936   24.9134 H   0  0  0  0  0  0  0  0  0  0  0  0
   19.0399   19.5712   24.0175 H   0  0  0  0  0  0  0  0  0  0  0  0
   18.6770   19.7160   26.1014 N   0  3  0  0  0  0  0  0  0  0  0  0
   19.1732   19.7765   26.9965 H   0  0  0  0  0  0  0  0  0  0  0  0
   18.0436   18.9121   26.1616 H   0  0  0  0  0  0  0  0  0  0  0  0
   18.0902   20.5542   26.0284 H   0  0  0  0  0  0  0  0  0  0  0  0
  1  2  1  0  0  0  0
  1  3  1  0  0  0  0
  1  4  1  0  0  0  0
  1  5  1  0  0  0  0
  5  6  1  0  0  0  0
  5  7  1  0  0  0  0
  5  8  1  0  0  0  0
  8  9  1  0  0  0  0
  8 10  1  0  0  0  0
  8 11  1  0  0  0  0
 11 12  1  0  0  0  0
 11 13  1  0  0  0  0
 11 14  1  0  0  0  0
 14 15  1  0  0  0  0
 14 16  1  0  0  0  0
 14 17  1  0  0  0  0
 17 18  1  0  0  0  0
 17 19  1  0  0  0  0
 17 20  1  0  0  0  0
 20 21  1  0  0  0  0
 20 22  1  0  0  0  0
 20 23  1  0  0  0  0
 23 24  1  0  0  0  0
 23 25  1  0  0  0  0
 23 26  1  0  0  0  0
M  END
> <VM2 Rank>
115

> <Conf_Id>
820

> <Probability>
0.02

> <Sum Probability>
99.46

> <Delta G>
3.595

> <G>
51.856

> <E>
18.644

> <-TS>
33.212

> <U+W>
-2.818

> <U>
51.403

> <W>
-54.221

> <W(PB)>
-56.463

> <W(SA)>
2.243

> <Valence>
5.068

> <Coulomb>
46.079

> <VdW>
0.255

> <VdW6>
-8.820

> <VdW12>
9.075

> <Bond>
0.244

> <Angle>
1.724

> <Pdih>
3.100

> <Idih>
0.000

> <Tether>
0.000

$$$$
VeraChem MOL file


 26 25  0  0  0  0  0  0  0  0999 V2000     
   21.3741   19.7569   20.4327 C   0  0  0  0  0  0  0  0  0  0  0  0
   20.8996   20.7450   20.3715 H   0  0  0  0  0  0  0  0  0  0  0  0
   21.9763   19.7200   21.3487 H   0  0  0  0  0  0  0  0  0  0  0  0
   22.0619   19.6620   19.5825 H   0  0  0  0  0  0  0  0  0  0  0  0
   20.3170   18.6297   20.4008 C   0  0  0  0  0  0  0  0  0  0  0  0
   20.8137   17.6542   20.4976 H   0  0  0  0  0  0  0  0  0  0  0  0
   19.8297   18.6298   19.4158 H   0  0  0  0  0  0  0  0  0  0  0  0
   19.2288   18.7739   21.4921 C   0  0  0  0  0  0  0  0  0  0  0  0
   18.7210   19.7416   21.3785 H   0  0  0  0  0  0  0  0  0  0  0  0
   18.4646   18.0023   21.3247 H   0  0  0  0  0  0  0  0  0  0  0  0
   19.7783   18.6388   22.9325 C   0  0  0  0  0  0  0  0  0  0  0  0
   20.4916   19.4491   23.1210 H   0  0  0  0  0  0  0  0  0  0  0  0
   20.3224   17.6891   23.0282 H   0  0  0  0  0  0  0  0  0  0  0  0
   18.6453   18.6980   23.9845 C   0  0  0  0  0  0  0  0  0  0  0  0
   18.1748   19.6907   23.9600 H   0  0  0  0  0  0  0  0  0  0  0  0
   17.8612   17.9808   23.7052 H   0  0  0  0  0  0  0  0  0  0  0  0
   19.0968   18.3769   25.4324 C   0  0  0  0  0  0  0  0  0  0  0  0
   19.5087   17.3605   25.4879 H   0  0  0  0  0  0  0  0  0  0  0  0
   18.2032   18.3750   26.0706 H   0  0  0  0  0  0  0  0  0  0  0  0
   20.0988   19.3865   26.0301 C   0  0  0  0  0  0  0  0  0  0  0  0
   19.8255   20.4021   25.7316 H   0  0  0  0  0  0  0  0  0  0  0  0
   20.0528   19.3299   27.1211 H   0  0  0  0  0  0  0  0  0  0  0  0
   21.5419   19.1383   25.6358 N   0  3  0  0  0  0  0  0  0  0  0  0
   21.8662   18.2165   25.9463 H   0  0  0  0  0  0  0  0  0  0  0  0
   22.1737   19.8321   26.0504 H   0  0  0  0  0  0  0  0  0  0  0  0
   21.6711   19.1787   24.6211 H   0  0  0  0  0  0  0  0  0  0  0  0
  1  2  1  0  0  0  0
  1  3  1  0  0  0  0
  1  4  1  0  0  0  0
  1  5  1  0  0  0  0
  5  6  1  0  0  0  0
  5  7  1  0  0  0  0
  5  8  1  0  0  0  0
  8  9  1  0  0  0  0
  8 10  1  0  0  0  0
  8 11  1  0  0  0  0
 11 12  1  0  0  0  0
 11 13  1  0  0  0  0
 11 14  1  0  0  0  0
 14 15  1  0  0  0  0
 14 16  1  0  0  0  0
 14 17  1  0  0  0  0
 17 18  1  0  0  0  0
 17 19  1  0  0  0  0
 17 20  1  0  0  0  0
 20 21  1  0  0  0  0
 20 22  1  0  0  0  0
 20 23  1  0  0  0  0
 23 24  1  0  0  0  0
 23 25  1  0  0  0  0
 23 26  1  0  0  0  0
M  END
> <VM2 Rank>
116

> <Conf_Id>
367

> <Probability>
0.02

> <Sum Probability>
99.48

> <Delta G>
3.618

> <G>
51.880

> <E>
19.271

> <-TS>
32.608

> <U+W>
-2.191

> <U>
51.693

> <W>
-53.883

> <W(PB)>
-56.153

> <W(SA)>
2.270

> <Valence>
4.262

> <Coulomb>
46.778

> <VdW>
0.653

> <VdW6>
-7.961

> <VdW12>
8.614

> <Bond>
0.225

> <Angle>
1.193

> <Pdih>
2.844

> <Idih>
0.000

> <Tether>
0.000

$$$$
VeraChem MOL file


 26 25  0  0  0  0  0  0  0  0999 V2000     
   20.1984   18.7712   19.5950 C   0  0  0  0  0  0  0  0  0  0  0  0
   20.2185   18.0986   18.7277 H   0  0  0  0  0  0  0  0  0  0  0  0
   19.6322   19.6678   19.3113 H   0  0  0  0  0  0  0  0  0  0  0  0
   21.2332   19.0692   19.8046 H   0  0  0  0  0  0  0  0  0  0  0  0
   19.5528   18.0673   20.8101 C   0  0  0  0  0  0  0  0  0  0  0  0
   20.1552   17.1929   21.0936 H   0  0  0  0  0  0  0  0  0  0  0  0
   18.5690   17.6788   20.5120 H   0  0  0  0  0  0  0  0  0  0  0  0
   19.3693   18.9952   22.0353 C   0  0  0  0  0  0  0  0  0  0  0  0
   18.7478   19.8553   21.7508 H   0  0  0  0  0  0  0  0  0  0  0  0
   18.7999   18.4484   22.7954 H   0  0  0  0  0  0  0  0  0  0  0  0
   20.7092   19.4994   22.6313 C   0  0  0  0  0  0  0  0  0  0  0  0
   21.2070   20.1300   21.8830 H   0  0  0  0  0  0  0  0  0  0  0  0
   21.3871   18.6552   22.8180 H   0  0  0  0  0  0  0  0  0  0  0  0
   20.5369   20.3389   23.9240 C   0  0  0  0  0  0  0  0  0  0  0  0
   21.3332   21.0957   23.9496 H   0  0  0  0  0  0  0  0  0  0  0  0
   19.5935   20.9012   23.8900 H   0  0  0  0  0  0  0  0  0  0  0  0
   20.6265   19.5227   25.2382 C   0  0  0  0  0  0  0  0  0  0  0  0
   20.5725   20.2175   26.0869 H   0  0  0  0  0  0  0  0  0  0  0  0
   21.6078   19.0336   25.2992 H   0  0  0  0  0  0  0  0  0  0  0  0
   19.5191   18.4650   25.3891 C   0  0  0  0  0  0  0  0  0  0  0  0
   18.5392   18.9419   25.3006 H   0  0  0  0  0  0  0  0  0  0  0  0
   19.6148   17.7178   24.5973 H   0  0  0  0  0  0  0  0  0  0  0  0
   19.5687   17.7393   26.7180 N   0  3  0  0  0  0  0  0  0  0  0  0
   19.4578   18.3824   27.5088 H   0  0  0  0  0  0  0  0  0  0  0  0
   20.4583   17.2474   26.8518 H   0  0  0  0  0  0  0  0  0  0  0  0
   18.8246   17.0377   26.7973 H   0  0  0  0  0  0  0  0  0  0  0  0
  1  2  1  0  0  0  0
  1  3  1  0  0  0  0
  1  4  1  0  0  0  0
  1  5  1  0  0  0  0
  5  6  1  0  0  0  0
  5  7  1  0  0  0  0
  5  8  1  0  0  0  0
  8  9  1  0  0  0  0
  8 10  1  0  0  0  0
  8 11  1  0  0  0  0
 11 12  1  0  0  0  0
 11 13  1  0  0  0  0
 11 14  1  0  0  0  0
 14 15  1  0  0  0  0
 14 16  1  0  0  0  0
 14 17  1  0  0  0  0
 17 18  1  0  0  0  0
 17 19  1  0  0  0  0
 17 20  1  0  0  0  0
 20 21  1  0  0  0  0
 20 22  1  0  0  0  0
 20 23  1  0  0  0  0
 23 24  1  0  0  0  0
 23 25  1  0  0  0  0
 23 26  1  0  0  0  0
M  END
> <VM2 Rank>
117

> <Conf_Id>
1319

> <Probability>
0.02

> <Sum Probability>
99.50

> <Delta G>
3.620

> <G>
51.881

> <E>
19.216

> <-TS>
32.665

> <U+W>
-2.246

> <U>
51.521

> <W>
-53.766

> <W(PB)>
-56.075

> <W(SA)>
2.309

> <Valence>
5.276

> <Coulomb>
45.448

> <VdW>
0.798

> <VdW6>
-7.889

> <VdW12>
8.687

> <Bond>
0.249

> <Angle>
1.289

> <Pdih>
3.738

> <Idih>
0.000

> <Tether>
0.000

$$$$
VeraChem MOL file


 26 25  0  0  0  0  0  0  0  0999 V2000     
   20.2490   18.8054   19.5965 C   0  0  0  0  0  0  0  0  0  0  0  0
   19.6615   19.6882   19.3126 H   0  0  0  0  0  0  0  0  0  0  0  0
   20.8990   18.5484   18.7500 H   0  0  0  0  0  0  0  0  0  0  0  0
   19.5587   17.9664   19.7481 H   0  0  0  0  0  0  0  0  0  0  0  0
   21.0929   19.0825   20.8614 C   0  0  0  0  0  0  0  0  0  0  0  0
   21.8505   19.8417   20.6216 H   0  0  0  0  0  0  0  0  0  0  0  0
   21.6457   18.1753   21.1427 H   0  0  0  0  0  0  0  0  0  0  0  0
   20.2562   19.5794   22.0651 C   0  0  0  0  0  0  0  0  0  0  0  0
   20.9470   19.8628   22.8672 H   0  0  0  0  0  0  0  0  0  0  0  0
   19.7240   20.4985   21.7839 H   0  0  0  0  0  0  0  0  0  0  0  0
   19.2387   18.5296   22.5821 C   0  0  0  0  0  0  0  0  0  0  0  0
   19.7387   17.5681   22.7627 H   0  0  0  0  0  0  0  0  0  0  0  0
   18.4987   18.3444   21.7923 H   0  0  0  0  0  0  0  0  0  0  0  0
   18.4752   18.9793   23.8551 C   0  0  0  0  0  0  0  0  0  0  0  0
   18.3310   20.0686   23.8477 H   0  0  0  0  0  0  0  0  0  0  0  0
   17.4662   18.5456   23.8204 H   0  0  0  0  0  0  0  0  0  0  0  0
   19.1284   18.5348   25.1881 C   0  0  0  0  0  0  0  0  0  0  0  0
   19.1894   17.4387   25.2183 H   0  0  0  0  0  0  0  0  0  0  0  0
   18.4720   18.8322   26.0166 H   0  0  0  0  0  0  0  0  0  0  0  0
   20.5278   19.1302   25.4229 C   0  0  0  0  0  0  0  0  0  0  0  0
   21.2135   18.7718   24.6510 H   0  0  0  0  0  0  0  0  0  0  0  0
   20.4788   20.2209   25.3653 H   0  0  0  0  0  0  0  0  0  0  0  0
   21.1127   18.7579   26.7699 N   0  3  0  0  0  0  0  0  0  0  0  0
   22.0457   19.1623   26.9054 H   0  0  0  0  0  0  0  0  0  0  0  0
   21.2089   17.7428   26.8773 H   0  0  0  0  0  0  0  0  0  0  0  0
   20.5288   19.0893   27.5447 H   0  0  0  0  0  0  0  0  0  0  0  0
  1  2  1  0  0  0  0
  1  3  1  0  0  0  0
  1  4  1  0  0  0  0
  1  5  1  0  0  0  0
  5  6  1  0  0  0  0
  5  7  1  0  0  0  0
  5  8  1  0  0  0  0
  8  9  1  0  0  0  0
  8 10  1  0  0  0  0
  8 11  1  0  0  0  0
 11 12  1  0  0  0  0
 11 13  1  0  0  0  0
 11 14  1  0  0  0  0
 14 15  1  0  0  0  0
 14 16  1  0  0  0  0
 14 17  1  0  0  0  0
 17 18  1  0  0  0  0
 17 19  1  0  0  0  0
 17 20  1  0  0  0  0
 20 21  1  0  0  0  0
 20 22  1  0  0  0  0
 20 23  1  0  0  0  0
 23 24  1  0  0  0  0
 23 25  1  0  0  0  0
 23 26  1  0  0  0  0
M  END
> <VM2 Rank>
118

> <Conf_Id>
997

> <Probability>
0.02

> <Sum Probability>
99.52

> <Delta G>
3.639

> <G>
51.900

> <E>
19.235

> <-TS>
32.665

> <U+W>
-2.227

> <U>
51.521

> <W>
-53.747

> <W(PB)>
-56.043

> <W(SA)>
2.296

> <Valence>
5.275

> <Coulomb>
45.448

> <VdW>
0.798

> <VdW6>
-7.889

> <VdW12>
8.686

> <Bond>
0.249

> <Angle>
1.289

> <Pdih>
3.737

> <Idih>
0.000

> <Tether>
0.000

$$$$
VeraChem MOL file


 26 25  0  0  0  0  0  0  0  0999 V2000     
   20.1332   19.5126   19.6623 C   0  0  0  0  0  0  0  0  0  0  0  0
   19.2032   18.9365   19.5844 H   0  0  0  0  0  0  0  0  0  0  0  0
   19.8730   20.5654   19.8325 H   0  0  0  0  0  0  0  0  0  0  0  0
   20.6429   19.4461   18.6924 H   0  0  0  0  0  0  0  0  0  0  0  0
   21.0451   18.9761   20.7893 C   0  0  0  0  0  0  0  0  0  0  0  0
   22.0099   19.5000   20.7389 H   0  0  0  0  0  0  0  0  0  0  0  0
   21.2637   17.9131   20.6157 H   0  0  0  0  0  0  0  0  0  0  0  0
   20.4537   19.1657   22.2073 C   0  0  0  0  0  0  0  0  0  0  0  0
   21.2340   18.9005   22.9316 H   0  0  0  0  0  0  0  0  0  0  0  0
   20.2174   20.2264   22.3680 H   0  0  0  0  0  0  0  0  0  0  0  0
   19.1985   18.2981   22.4742 C   0  0  0  0  0  0  0  0  0  0  0  0
   19.4672   17.2358   22.3942 H   0  0  0  0  0  0  0  0  0  0  0  0
   18.4517   18.4833   21.6919 H   0  0  0  0  0  0  0  0  0  0  0  0
   18.5177   18.5557   23.8437 C   0  0  0  0  0  0  0  0  0  0  0  0
   18.1439   19.5880   23.8908 H   0  0  0  0  0  0  0  0  0  0  0  0
   17.6265   17.9149   23.8955 H   0  0  0  0  0  0  0  0  0  0  0  0
   19.4002   18.2539   25.0811 C   0  0  0  0  0  0  0  0  0  0  0  0
   20.0492   17.3908   24.8812 H   0  0  0  0  0  0  0  0  0  0  0  0
   18.7465   17.9637   25.9145 H   0  0  0  0  0  0  0  0  0  0  0  0
   20.2402   19.4648   25.5326 C   0  0  0  0  0  0  0  0  0  0  0  0
   20.9055   19.7859   24.7291 H   0  0  0  0  0  0  0  0  0  0  0  0
   19.5768   20.2982   25.7790 H   0  0  0  0  0  0  0  0  0  0  0  0
   21.0924   19.1723   26.7505 N   0  3  0  0  0  0  0  0  0  0  0  0
   20.5233   18.8956   27.5572 H   0  0  0  0  0  0  0  0  0  0  0  0
   21.6396   19.9909   27.0384 H   0  0  0  0  0  0  0  0  0  0  0  0
   21.7592   18.4131   26.5772 H   0  0  0  0  0  0  0  0  0  0  0  0
  1  2  1  0  0  0  0
  1  3  1  0  0  0  0
  1  4  1  0  0  0  0
  1  5  1  0  0  0  0
  5  6  1  0  0  0  0
  5  7  1  0  0  0  0
  5  8  1  0  0  0  0
  8  9  1  0  0  0  0
  8 10  1  0  0  0  0
  8 11  1  0  0  0  0
 11 12  1  0  0  0  0
 11 13  1  0  0  0  0
 11 14  1  0  0  0  0
 14 15  1  0  0  0  0
 14 16  1  0  0  0  0
 14 17  1  0  0  0  0
 17 18  1  0  0  0  0
 17 19  1  0  0  0  0
 17 20  1  0  0  0  0
 20 21  1  0  0  0  0
 20 22  1  0  0  0  0
 20 23  1  0  0  0  0
 23 24  1  0  0  0  0
 23 25  1  0  0  0  0
 23 26  1  0  0  0  0
M  END
> <VM2 Rank>
119

> <Conf_Id>
1208

> <Probability>
0.02

> <Sum Probability>
99.54

> <Delta G>
3.640

> <G>
51.902

> <E>
19.156

> <-TS>
32.745

> <U+W>
-2.305

> <U>
51.609

> <W>
-53.915

> <W(PB)>
-56.222

> <W(SA)>
2.307

> <Valence>
5.204

> <Coulomb>
45.645

> <VdW>
0.760

> <VdW6>
-7.997

> <VdW12>
8.757

> <Bond>
0.240

> <Angle>
1.456

> <Pdih>
3.507

> <Idih>
0.000

> <Tether>
0.000

$$$$
VeraChem MOL file


 26 25  0  0  0  0  0  0  0  0999 V2000     
   19.5911   19.1550   19.6441 C   0  0  0  0  0  0  0  0  0  0  0  0
   20.4891   19.7843   19.6274 H   0  0  0  0  0  0  0  0  0  0  0  0
   19.4971   18.6903   18.6541 H   0  0  0  0  0  0  0  0  0  0  0  0
   18.7185   19.8039   19.7938 H   0  0  0  0  0  0  0  0  0  0  0  0
   19.6730   18.0713   20.7434 C   0  0  0  0  0  0  0  0  0  0  0  0
   20.5715   17.4566   20.5927 H   0  0  0  0  0  0  0  0  0  0  0  0
   18.8152   17.3934   20.6321 H   0  0  0  0  0  0  0  0  0  0  0  0
   19.6652   18.6458   22.1809 C   0  0  0  0  0  0  0  0  0  0  0  0
   18.7763   19.2763   22.3198 H   0  0  0  0  0  0  0  0  0  0  0  0
   19.5684   17.8024   22.8759 H   0  0  0  0  0  0  0  0  0  0  0  0
   20.9426   19.4483   22.5325 C   0  0  0  0  0  0  0  0  0  0  0  0
   21.1024   20.2312   21.7805 H   0  0  0  0  0  0  0  0  0  0  0  0
   21.8164   18.7850   22.4728 H   0  0  0  0  0  0  0  0  0  0  0  0
   20.9098   20.1331   23.9237 C   0  0  0  0  0  0  0  0  0  0  0  0
   21.8459   20.6974   24.0365 H   0  0  0  0  0  0  0  0  0  0  0  0
   20.1063   20.8820   23.9564 H   0  0  0  0  0  0  0  0  0  0  0  0
   20.7827   19.1655   25.1273 C   0  0  0  0  0  0  0  0  0  0  0  0
   21.2673   19.6259   25.9987 H   0  0  0  0  0  0  0  0  0  0  0  0
   21.3298   18.2353   24.9240 H   0  0  0  0  0  0  0  0  0  0  0  0
   19.3197   18.8578   25.5019 C   0  0  0  0  0  0  0  0  0  0  0  0
   18.8033   19.7881   25.7533 H   0  0  0  0  0  0  0  0  0  0  0  0
   18.8007   18.3980   24.6588 H   0  0  0  0  0  0  0  0  0  0  0  0
   19.1969   17.9223   26.6872 N   0  3  0  0  0  0  0  0  0  0  0  0
   19.6403   17.0158   26.5064 H   0  0  0  0  0  0  0  0  0  0  0  0
   18.2168   17.7337   26.9241 H   0  0  0  0  0  0  0  0  0  0  0  0
   19.6371   18.3111   27.5276 H   0  0  0  0  0  0  0  0  0  0  0  0
  1  2  1  0  0  0  0
  1  3  1  0  0  0  0
  1  4  1  0  0  0  0
  1  5  1  0  0  0  0
  5  6  1  0  0  0  0
  5  7  1  0  0  0  0
  5  8  1  0  0  0  0
  8  9  1  0  0  0  0
  8 10  1  0  0  0  0
  8 11  1  0  0  0  0
 11 12  1  0  0  0  0
 11 13  1  0  0  0  0
 11 14  1  0  0  0  0
 14 15  1  0  0  0  0
 14 16  1  0  0  0  0
 14 17  1  0  0  0  0
 17 18  1  0  0  0  0
 17 19  1  0  0  0  0
 17 20  1  0  0  0  0
 20 21  1  0  0  0  0
 20 22  1  0  0  0  0
 20 23  1  0  0  0  0
 23 24  1  0  0  0  0
 23 25  1  0  0  0  0
 23 26  1  0  0  0  0
M  END
> <VM2 Rank>
120

> <Conf_Id>
659

> <Probability>
0.02

> <Sum Probability>
99.55

> <Delta G>
3.646

> <G>
51.908

> <E>
19.162

> <-TS>
32.745

> <U+W>
-2.299

> <U>
51.609

> <W>
-53.909

> <W(PB)>
-56.178

> <W(SA)>
2.270

> <Valence>
5.204

> <Coulomb>
45.645

> <VdW>
0.760

> <VdW6>
-7.997

> <VdW12>
8.757

> <Bond>
0.240

> <Angle>
1.456

> <Pdih>
3.507

> <Idih>
0.000

> <Tether>
0.000

$$$$
VeraChem MOL file


 26 25  0  0  0  0  0  0  0  0999 V2000     
   20.3768   20.2980   19.9948 C   0  0  0  0  0  0  0  0  0  0  0  0
   21.3303   20.6602   19.5891 H   0  0  0  0  0  0  0  0  0  0  0  0
   19.7615   19.9541   19.1531 H   0  0  0  0  0  0  0  0  0  0  0  0
   19.8666   21.1481   20.4663 H   0  0  0  0  0  0  0  0  0  0  0  0
   20.6134   19.1606   21.0108 C   0  0  0  0  0  0  0  0  0  0  0  0
   21.2659   19.5261   21.8127 H   0  0  0  0  0  0  0  0  0  0  0  0
   21.1548   18.3415   20.5171 H   0  0  0  0  0  0  0  0  0  0  0  0
   19.2808   18.6261   21.5887 C   0  0  0  0  0  0  0  0  0  0  0  0
   18.7000   19.4454   22.0343 H   0  0  0  0  0  0  0  0  0  0  0  0
   18.6759   18.2457   20.7540 H   0  0  0  0  0  0  0  0  0  0  0  0
   19.4675   17.4822   22.6194 C   0  0  0  0  0  0  0  0  0  0  0  0
   20.3801   16.9123   22.3963 H   0  0  0  0  0  0  0  0  0  0  0  0
   18.6384   16.7719   22.4949 H   0  0  0  0  0  0  0  0  0  0  0  0
   19.4710   17.9383   24.1014 C   0  0  0  0  0  0  0  0  0  0  0  0
   18.5086   18.4140   24.3329 H   0  0  0  0  0  0  0  0  0  0  0  0
   19.5322   17.0438   24.7368 H   0  0  0  0  0  0  0  0  0  0  0  0
   20.6298   18.8955   24.4709 C   0  0  0  0  0  0  0  0  0  0  0  0
   20.5057   19.8567   23.9565 H   0  0  0  0  0  0  0  0  0  0  0  0
   21.5808   18.4673   24.1277 H   0  0  0  0  0  0  0  0  0  0  0  0
   20.7272   19.1484   25.9876 C   0  0  0  0  0  0  0  0  0  0  0  0
   20.8515   18.1971   26.5120 H   0  0  0  0  0  0  0  0  0  0  0  0
   21.6021   19.7699   26.1967 H   0  0  0  0  0  0  0  0  0  0  0  0
   19.5146   19.8499   26.5674 N   0  3  0  0  0  0  0  0  0  0  0  0
   18.6597   19.3007   26.4354 H   0  0  0  0  0  0  0  0  0  0  0  0
   19.3585   20.7641   26.1307 H   0  0  0  0  0  0  0  0  0  0  0  0
   19.6146   20.0123   27.5753 H   0  0  0  0  0  0  0  0  0  0  0  0
  1  2  1  0  0  0  0
  1  3  1  0  0  0  0
  1  4  1  0  0  0  0
  1  5  1  0  0  0  0
  5  6  1  0  0  0  0
  5  7  1  0  0  0  0
  5  8  1  0  0  0  0
  8  9  1  0  0  0  0
  8 10  1  0  0  0  0
  8 11  1  0  0  0  0
 11 12  1  0  0  0  0
 11 13  1  0  0  0  0
 11 14  1  0  0  0  0
 14 15  1  0  0  0  0
 14 16  1  0  0  0  0
 14 17  1  0  0  0  0
 17 18  1  0  0  0  0
 17 19  1  0  0  0  0
 17 20  1  0  0  0  0
 20 21  1  0  0  0  0
 20 22  1  0  0  0  0
 20 23  1  0  0  0  0
 23 24  1  0  0  0  0
 23 25  1  0  0  0  0
 23 26  1  0  0  0  0
M  END
> <VM2 Rank>
121

> <Conf_Id>
283

> <Probability>
0.02

> <Sum Probability>
99.57

> <Delta G>
3.649

> <G>
51.911

> <E>
19.080

> <-TS>
32.831

> <U+W>
-2.382

> <U>
51.463

> <W>
-53.845

> <W(PB)>
-56.121

> <W(SA)>
2.276

> <Valence>
5.277

> <Coulomb>
45.445

> <VdW>
0.741

> <VdW6>
-7.943

> <VdW12>
8.684

> <Bond>
0.235

> <Angle>
1.187

> <Pdih>
3.855

> <Idih>
0.000

> <Tether>
0.000

$$$$
VeraChem MOL file


 26 25  0  0  0  0  0  0  0  0999 V2000     
   19.1921   20.3127   20.7345 C   0  0  0  0  0  0  0  0  0  0  0  0
   19.4365   21.2438   20.2069 H   0  0  0  0  0  0  0  0  0  0  0  0
   18.2326   19.9507   20.3430 H   0  0  0  0  0  0  0  0  0  0  0  0
   19.0532   20.5583   21.7929 H   0  0  0  0  0  0  0  0  0  0  0  0
   20.3067   19.2620   20.5209 C   0  0  0  0  0  0  0  0  0  0  0  0
   21.2757   19.6597   20.8530 H   0  0  0  0  0  0  0  0  0  0  0  0
   20.4056   19.0894   19.4400 H   0  0  0  0  0  0  0  0  0  0  0  0
   20.0153   17.9051   21.2123 C   0  0  0  0  0  0  0  0  0  0  0  0
   18.9318   17.7314   21.2672 H   0  0  0  0  0  0  0  0  0  0  0  0
   20.4107   17.1041   20.5724 H   0  0  0  0  0  0  0  0  0  0  0  0
   20.6541   17.7378   22.6153 C   0  0  0  0  0  0  0  0  0  0  0  0
   21.7472   17.8074   22.5288 H   0  0  0  0  0  0  0  0  0  0  0  0
   20.4400   16.7203   22.9706 H   0  0  0  0  0  0  0  0  0  0  0  0
   20.1557   18.7535   23.6692 C   0  0  0  0  0  0  0  0  0  0  0  0
   20.4823   19.7637   23.3901 H   0  0  0  0  0  0  0  0  0  0  0  0
   19.0578   18.7559   23.6799 H   0  0  0  0  0  0  0  0  0  0  0  0
   20.6959   18.4257   25.0813 C   0  0  0  0  0  0  0  0  0  0  0  0
   21.7928   18.3827   25.0497 H   0  0  0  0  0  0  0  0  0  0  0  0
   20.3521   17.4311   25.3951 H   0  0  0  0  0  0  0  0  0  0  0  0
   20.2786   19.4697   26.1349 C   0  0  0  0  0  0  0  0  0  0  0  0
   20.7563   19.2326   27.0894 H   0  0  0  0  0  0  0  0  0  0  0  0
   20.6146   20.4623   25.8229 H   0  0  0  0  0  0  0  0  0  0  0  0
   18.7825   19.5324   26.3726 N   0  3  0  0  0  0  0  0  0  0  0  0
   18.5396   20.2270   27.0873 H   0  0  0  0  0  0  0  0  0  0  0  0
   18.4099   18.6321   26.6914 H   0  0  0  0  0  0  0  0  0  0  0  0
   18.2730   19.7872   25.5210 H   0  0  0  0  0  0  0  0  0  0  0  0
  1  2  1  0  0  0  0
  1  3  1  0  0  0  0
  1  4  1  0  0  0  0
  1  5  1  0  0  0  0
  5  6  1  0  0  0  0
  5  7  1  0  0  0  0
  5  8  1  0  0  0  0
  8  9  1  0  0  0  0
  8 10  1  0  0  0  0
  8 11  1  0  0  0  0
 11 12  1  0  0  0  0
 11 13  1  0  0  0  0
 11 14  1  0  0  0  0
 14 15  1  0  0  0  0
 14 16  1  0  0  0  0
 14 17  1  0  0  0  0
 17 18  1  0  0  0  0
 17 19  1  0  0  0  0
 17 20  1  0  0  0  0
 20 21  1  0  0  0  0
 20 22  1  0  0  0  0
 20 23  1  0  0  0  0
 23 24  1  0  0  0  0
 23 25  1  0  0  0  0
 23 26  1  0  0  0  0
M  END
> <VM2 Rank>
122

> <Conf_Id>
262

> <Probability>
0.02

> <Sum Probability>
99.59

> <Delta G>
3.661

> <G>
51.923

> <E>
19.125

> <-TS>
32.798

> <U+W>
-2.337

> <U>
51.511

> <W>
-53.848

> <W(PB)>
-56.117

> <W(SA)>
2.269

> <Valence>
5.253

> <Coulomb>
45.470

> <VdW>
0.789

> <VdW6>
-7.872

> <VdW12>
8.661

> <Bond>
0.233

> <Angle>
1.235

> <Pdih>
3.785

> <Idih>
0.000

> <Tether>
0.000

$$$$
VeraChem MOL file


 26 25  0  0  0  0  0  0  0  0999 V2000     
   19.1745   20.3011   20.7339 C   0  0  0  0  0  0  0  0  0  0  0  0
   19.9014   21.0523   20.3986 H   0  0  0  0  0  0  0  0  0  0  0  0
   18.2477   20.4591   20.1673 H   0  0  0  0  0  0  0  0  0  0  0  0
   18.9543   20.4930   21.7896 H   0  0  0  0  0  0  0  0  0  0  0  0
   19.7130   18.8701   20.5011 C   0  0  0  0  0  0  0  0  0  0  0  0
   19.8830   18.7444   19.4226 H   0  0  0  0  0  0  0  0  0  0  0  0
   18.9523   18.1261   20.7756 H   0  0  0  0  0  0  0  0  0  0  0  0
   21.0418   18.5828   21.2466 C   0  0  0  0  0  0  0  0  0  0  0  0
   21.6526   17.9240   20.6139 H   0  0  0  0  0  0  0  0  0  0  0  0
   21.6235   19.5083   21.3571 H   0  0  0  0  0  0  0  0  0  0  0  0
   20.8801   17.8869   22.6229 C   0  0  0  0  0  0  0  0  0  0  0  0
   21.8824   17.6725   23.0187 H   0  0  0  0  0  0  0  0  0  0  0  0
   20.3917   16.9126   22.4835 H   0  0  0  0  0  0  0  0  0  0  0  0
   20.0931   18.7121   23.6671 C   0  0  0  0  0  0  0  0  0  0  0  0
   20.5207   19.7216   23.7288 H   0  0  0  0  0  0  0  0  0  0  0  0
   19.0499   18.8181   23.3422 H   0  0  0  0  0  0  0  0  0  0  0  0
   20.1169   18.0434   25.0619 C   0  0  0  0  0  0  0  0  0  0  0  0
   21.1510   17.9585   25.4218 H   0  0  0  0  0  0  0  0  0  0  0  0
   19.7281   17.0196   24.9807 H   0  0  0  0  0  0  0  0  0  0  0  0
   19.2721   18.8052   26.1013 C   0  0  0  0  0  0  0  0  0  0  0  0
   18.2429   18.8964   25.7436 H   0  0  0  0  0  0  0  0  0  0  0  0
   19.2585   18.2437   27.0394 H   0  0  0  0  0  0  0  0  0  0  0  0
   19.7895   20.1973   26.4062 N   0  3  0  0  0  0  0  0  0  0  0  0
   20.7479   20.1758   26.7696 H   0  0  0  0  0  0  0  0  0  0  0  0
   19.2131   20.6719   27.1097 H   0  0  0  0  0  0  0  0  0  0  0  0
   19.7947   20.7918   25.5717 H   0  0  0  0  0  0  0  0  0  0  0  0
  1  2  1  0  0  0  0
  1  3  1  0  0  0  0
  1  4  1  0  0  0  0
  1  5  1  0  0  0  0
  5  6  1  0  0  0  0
  5  7  1  0  0  0  0
  5  8  1  0  0  0  0
  8  9  1  0  0  0  0
  8 10  1  0  0  0  0
  8 11  1  0  0  0  0
 11 12  1  0  0  0  0
 11 13  1  0  0  0  0
 11 14  1  0  0  0  0
 14 15  1  0  0  0  0
 14 16  1  0  0  0  0
 14 17  1  0  0  0  0
 17 18  1  0  0  0  0
 17 19  1  0  0  0  0
 17 20  1  0  0  0  0
 20 21  1  0  0  0  0
 20 22  1  0  0  0  0
 20 23  1  0  0  0  0
 23 24  1  0  0  0  0
 23 25  1  0  0  0  0
 23 26  1  0  0  0  0
M  END
> <VM2 Rank>
123

> <Conf_Id>
857

> <Probability>
0.02

> <Sum Probability>
99.60

> <Delta G>
3.691

> <G>
51.952

> <E>
19.155

> <-TS>
32.798

> <U+W>
-2.307

> <U>
51.512

> <W>
-53.819

> <W(PB)>
-56.098

> <W(SA)>
2.279

> <Valence>
5.253

> <Coulomb>
45.470

> <VdW>
0.789

> <VdW6>
-7.872

> <VdW12>
8.661

> <Bond>
0.233

> <Angle>
1.235

> <Pdih>
3.785

> <Idih>
0.000

> <Tether>
0.000

$$$$
VeraChem MOL file


 26 25  0  0  0  0  0  0  0  0999 V2000     
   18.5402   18.5281   20.9260 C   0  0  0  0  0  0  0  0  0  0  0  0
   18.6211   17.8159   21.7563 H   0  0  0  0  0  0  0  0  0  0  0  0
   18.0545   19.4415   21.2928 H   0  0  0  0  0  0  0  0  0  0  0  0
   17.8823   18.0777   20.1715 H   0  0  0  0  0  0  0  0  0  0  0  0
   19.9249   18.8389   20.3172 C   0  0  0  0  0  0  0  0  0  0  0  0
   19.7816   19.4138   19.3916 H   0  0  0  0  0  0  0  0  0  0  0  0
   20.4110   17.8994   20.0193 H   0  0  0  0  0  0  0  0  0  0  0  0
   20.8691   19.6387   21.2510 C   0  0  0  0  0  0  0  0  0  0  0  0
   21.7939   19.8388   20.6923 H   0  0  0  0  0  0  0  0  0  0  0  0
   20.4370   20.6248   21.4702 H   0  0  0  0  0  0  0  0  0  0  0  0
   21.2481   18.9116   22.5675 C   0  0  0  0  0  0  0  0  0  0  0  0
   22.2882   19.1640   22.8165 H   0  0  0  0  0  0  0  0  0  0  0  0
   21.2278   17.8236   22.4157 H   0  0  0  0  0  0  0  0  0  0  0  0
   20.3547   19.3069   23.7687 C   0  0  0  0  0  0  0  0  0  0  0  0
   20.4392   20.3884   23.9441 H   0  0  0  0  0  0  0  0  0  0  0  0
   19.3024   19.1089   23.5371 H   0  0  0  0  0  0  0  0  0  0  0  0
   20.7566   18.5470   25.0548 C   0  0  0  0  0  0  0  0  0  0  0  0
   21.8184   18.7289   25.2682 H   0  0  0  0  0  0  0  0  0  0  0  0
   20.6488   17.4649   24.9016 H   0  0  0  0  0  0  0  0  0  0  0  0
   19.9319   18.9771   26.2833 C   0  0  0  0  0  0  0  0  0  0  0  0
   20.3170   18.4719   27.1733 H   0  0  0  0  0  0  0  0  0  0  0  0
   20.0308   20.0555   26.4340 H   0  0  0  0  0  0  0  0  0  0  0  0
   18.4554   18.6507   26.1726 N   0  3  0  0  0  0  0  0  0  0  0  0
   17.9387   18.9370   27.0113 H   0  0  0  0  0  0  0  0  0  0  0  0
   18.2959   17.6452   26.0516 H   0  0  0  0  0  0  0  0  0  0  0  0
   18.0203   19.1253   25.3756 H   0  0  0  0  0  0  0  0  0  0  0  0
  1  2  1  0  0  0  0
  1  3  1  0  0  0  0
  1  4  1  0  0  0  0
  1  5  1  0  0  0  0
  5  6  1  0  0  0  0
  5  7  1  0  0  0  0
  5  8  1  0  0  0  0
  8  9  1  0  0  0  0
  8 10  1  0  0  0  0
  8 11  1  0  0  0  0
 11 12  1  0  0  0  0
 11 13  1  0  0  0  0
 11 14  1  0  0  0  0
 14 15  1  0  0  0  0
 14 16  1  0  0  0  0
 14 17  1  0  0  0  0
 17 18  1  0  0  0  0
 17 19  1  0  0  0  0
 17 20  1  0  0  0  0
 20 21  1  0  0  0  0
 20 22  1  0  0  0  0
 20 23  1  0  0  0  0
 23 24  1  0  0  0  0
 23 25  1  0  0  0  0
 23 26  1  0  0  0  0
M  END
> <VM2 Rank>
124

> <Conf_Id>
1323

> <Probability>
0.02

> <Sum Probability>
99.62

> <Delta G>
3.697

> <G>
51.958

> <E>
19.142

> <-TS>
32.817

> <U+W>
-2.320

> <U>
51.663

> <W>
-53.983

> <W(PB)>
-56.239

> <W(SA)>
2.256

> <Valence>
5.225

> <Coulomb>
45.676

> <VdW>
0.762

> <VdW6>
-7.910

> <VdW12>
8.672

> <Bond>
0.235

> <Angle>
1.176

> <Pdih>
3.813

> <Idih>
0.000

> <Tether>
0.000

$$$$
VeraChem MOL file


 26 25  0  0  0  0  0  0  0  0999 V2000     
   19.7692   20.1797   20.1830 C   0  0  0  0  0  0  0  0  0  0  0  0
   19.2569   20.6176   21.0466 H   0  0  0  0  0  0  0  0  0  0  0  0
   20.2911   20.9915   19.6601 H   0  0  0  0  0  0  0  0  0  0  0  0
   19.0050   19.7828   19.5022 H   0  0  0  0  0  0  0  0  0  0  0  0
   20.7679   19.0736   20.5965 C   0  0  0  0  0  0  0  0  0  0  0  0
   21.5648   19.4942   21.2254 H   0  0  0  0  0  0  0  0  0  0  0  0
   21.2629   18.7081   19.6859 H   0  0  0  0  0  0  0  0  0  0  0  0
   20.0970   17.8710   21.3091 C   0  0  0  0  0  0  0  0  0  0  0  0
   19.0689   17.7381   20.9449 H   0  0  0  0  0  0  0  0  0  0  0  0
   20.6341   16.9582   21.0162 H   0  0  0  0  0  0  0  0  0  0  0  0
   20.1103   17.9416   22.8579 C   0  0  0  0  0  0  0  0  0  0  0  0
   21.1513   17.9725   23.2066 H   0  0  0  0  0  0  0  0  0  0  0  0
   19.6839   17.0068   23.2475 H   0  0  0  0  0  0  0  0  0  0  0  0
   19.3235   19.1373   23.4478 C   0  0  0  0  0  0  0  0  0  0  0  0
   19.8318   20.0774   23.1963 H   0  0  0  0  0  0  0  0  0  0  0  0
   18.3274   19.1800   22.9863 H   0  0  0  0  0  0  0  0  0  0  0  0
   19.1577   19.0526   24.9832 C   0  0  0  0  0  0  0  0  0  0  0  0
   18.6179   18.1331   25.2462 H   0  0  0  0  0  0  0  0  0  0  0  0
   18.5340   19.8908   25.3216 H   0  0  0  0  0  0  0  0  0  0  0  0
   20.5049   19.0933   25.7285 C   0  0  0  0  0  0  0  0  0  0  0  0
   21.1189   18.2399   25.4294 H   0  0  0  0  0  0  0  0  0  0  0  0
   21.0406   20.0107   25.4701 H   0  0  0  0  0  0  0  0  0  0  0  0
   20.3506   19.0499   27.2350 N   0  3  0  0  0  0  0  0  0  0  0  0
   19.8045   19.8434   27.5862 H   0  0  0  0  0  0  0  0  0  0  0  0
   21.2584   19.0779   27.7120 H   0  0  0  0  0  0  0  0  0  0  0  0
   19.8762   18.1959   27.5460 H   0  0  0  0  0  0  0  0  0  0  0  0
  1  2  1  0  0  0  0
  1  3  1  0  0  0  0
  1  4  1  0  0  0  0
  1  5  1  0  0  0  0
  5  6  1  0  0  0  0
  5  7  1  0  0  0  0
  5  8  1  0  0  0  0
  8  9  1  0  0  0  0
  8 10  1  0  0  0  0
  8 11  1  0  0  0  0
 11 12  1  0  0  0  0
 11 13  1  0  0  0  0
 11 14  1  0  0  0  0
 14 15  1  0  0  0  0
 14 16  1  0  0  0  0
 14 17  1  0  0  0  0
 17 18  1  0  0  0  0
 17 19  1  0  0  0  0
 17 20  1  0  0  0  0
 20 21  1  0  0  0  0
 20 22  1  0  0  0  0
 20 23  1  0  0  0  0
 23 24  1  0  0  0  0
 23 25  1  0  0  0  0
 23 26  1  0  0  0  0
M  END
> <VM2 Rank>
125

> <Conf_Id>
751

> <Probability>
0.02

> <Sum Probability>
99.63

> <Delta G>
3.714

> <G>
51.976

> <E>
19.186

> <-TS>
32.790

> <U+W>
-2.276

> <U>
51.296

> <W>
-53.572

> <W(PB)>
-55.840

> <W(SA)>
2.268

> <Valence>
5.428

> <Coulomb>
45.118

> <VdW>
0.751

> <VdW6>
-7.913

> <VdW12>
8.664

> <Bond>
0.235

> <Angle>
1.292

> <Pdih>
3.901

> <Idih>
0.000

> <Tether>
0.000

$$$$
VeraChem MOL file


 26 25  0  0  0  0  0  0  0  0999 V2000     
   20.6659   20.0036   19.8194 C   0  0  0  0  0  0  0  0  0  0  0  0
   20.1958   20.9464   20.1281 H   0  0  0  0  0  0  0  0  0  0  0  0
   21.6802   20.2321   19.4675 H   0  0  0  0  0  0  0  0  0  0  0  0
   20.0979   19.6000   18.9711 H   0  0  0  0  0  0  0  0  0  0  0  0
   20.7084   18.9967   20.9883 C   0  0  0  0  0  0  0  0  0  0  0  0
   21.3185   19.4126   21.7991 H   0  0  0  0  0  0  0  0  0  0  0  0
   21.2145   18.0792   20.6570 H   0  0  0  0  0  0  0  0  0  0  0  0
   19.2873   18.6497   21.4941 C   0  0  0  0  0  0  0  0  0  0  0  0
   18.7424   19.5642   21.7659 H   0  0  0  0  0  0  0  0  0  0  0  0
   18.7288   18.2015   20.6606 H   0  0  0  0  0  0  0  0  0  0  0  0
   19.2819   17.6519   22.6816 C   0  0  0  0  0  0  0  0  0  0  0  0
   20.1683   17.0040   22.6396 H   0  0  0  0  0  0  0  0  0  0  0  0
   18.4202   16.9809   22.5601 H   0  0  0  0  0  0  0  0  0  0  0  0
   19.1674   18.3081   24.0820 C   0  0  0  0  0  0  0  0  0  0  0  0
   18.2220   18.8643   24.1474 H   0  0  0  0  0  0  0  0  0  0  0  0
   19.1010   17.5044   24.8271 H   0  0  0  0  0  0  0  0  0  0  0  0
   20.3419   19.2498   24.4433 C   0  0  0  0  0  0  0  0  0  0  0  0
   20.3490   20.1051   23.7563 H   0  0  0  0  0  0  0  0  0  0  0  0
   21.2992   18.7274   24.3153 H   0  0  0  0  0  0  0  0  0  0  0  0
   20.2434   19.8002   25.8793 C   0  0  0  0  0  0  0  0  0  0  0  0
   21.0340   20.5384   26.0387 H   0  0  0  0  0  0  0  0  0  0  0  0
   19.2797   20.2977   26.0177 H   0  0  0  0  0  0  0  0  0  0  0  0
   20.3849   18.7390   26.9530 N   0  3  0  0  0  0  0  0  0  0  0  0
   20.3295   19.1411   27.8951 H   0  0  0  0  0  0  0  0  0  0  0  0
   21.2835   18.2498   26.8888 H   0  0  0  0  0  0  0  0  0  0  0  0
   19.6484   18.0298   26.8861 H   0  0  0  0  0  0  0  0  0  0  0  0
  1  2  1  0  0  0  0
  1  3  1  0  0  0  0
  1  4  1  0  0  0  0
  1  5  1  0  0  0  0
  5  6  1  0  0  0  0
  5  7  1  0  0  0  0
  5  8  1  0  0  0  0
  8  9  1  0  0  0  0
  8 10  1  0  0  0  0
  8 11  1  0  0  0  0
 11 12  1  0  0  0  0
 11 13  1  0  0  0  0
 11 14  1  0  0  0  0
 14 15  1  0  0  0  0
 14 16  1  0  0  0  0
 14 17  1  0  0  0  0
 17 18  1  0  0  0  0
 17 19  1  0  0  0  0
 17 20  1  0  0  0  0
 20 21  1  0  0  0  0
 20 22  1  0  0  0  0
 20 23  1  0  0  0  0
 23 24  1  0  0  0  0
 23 25  1  0  0  0  0
 23 26  1  0  0  0  0
M  END
> <VM2 Rank>
126

> <Conf_Id>
990

> <Probability>
0.02

> <Sum Probability>
99.65

> <Delta G>
3.720

> <G>
51.981

> <E>
19.156

> <-TS>
32.825

> <U+W>
-2.306

> <U>
51.407

> <W>
-53.713

> <W(PB)>
-55.993

> <W(SA)>
2.280

> <Valence>
5.338

> <Coulomb>
45.268

> <VdW>
0.801

> <VdW6>
-7.902

> <VdW12>
8.703

> <Bond>
0.239

> <Angle>
1.230

> <Pdih>
3.868

> <Idih>
0.000

> <Tether>
0.000

$$$$
VeraChem MOL file


 26 25  0  0  0  0  0  0  0  0999 V2000     
   18.9771   19.1869   19.7258 C   0  0  0  0  0  0  0  0  0  0  0  0
   19.6013   18.7189   18.9535 H   0  0  0  0  0  0  0  0  0  0  0  0
   17.9402   18.8669   19.5600 H   0  0  0  0  0  0  0  0  0  0  0  0
   19.0203   20.2751   19.5874 H   0  0  0  0  0  0  0  0  0  0  0  0
   19.4507   18.7886   21.1398 C   0  0  0  0  0  0  0  0  0  0  0  0
   19.3711   17.6989   21.2571 H   0  0  0  0  0  0  0  0  0  0  0  0
   18.7795   19.2451   21.8791 H   0  0  0  0  0  0  0  0  0  0  0  0
   20.9062   19.2386   21.4014 C   0  0  0  0  0  0  0  0  0  0  0  0
   21.5445   18.8724   20.5854 H   0  0  0  0  0  0  0  0  0  0  0  0
   20.9613   20.3353   21.3629 H   0  0  0  0  0  0  0  0  0  0  0  0
   21.5006   18.7400   22.7440 C   0  0  0  0  0  0  0  0  0  0  0  0
   22.5443   19.0805   22.7891 H   0  0  0  0  0  0  0  0  0  0  0  0
   21.5478   17.6423   22.7521 H   0  0  0  0  0  0  0  0  0  0  0  0
   20.7686   19.2575   24.0098 C   0  0  0  0  0  0  0  0  0  0  0  0
   21.5211   19.4481   24.7865 H   0  0  0  0  0  0  0  0  0  0  0  0
   20.2942   20.2265   23.8013 H   0  0  0  0  0  0  0  0  0  0  0  0
   19.7270   18.2553   24.5693 C   0  0  0  0  0  0  0  0  0  0  0  0
   20.2282   17.3251   24.8683 H   0  0  0  0  0  0  0  0  0  0  0  0
   19.0079   17.9793   23.7899 H   0  0  0  0  0  0  0  0  0  0  0  0
   18.9437   18.8220   25.7692 C   0  0  0  0  0  0  0  0  0  0  0  0
   18.4467   19.7513   25.4781 H   0  0  0  0  0  0  0  0  0  0  0  0
   18.1758   18.1050   26.0721 H   0  0  0  0  0  0  0  0  0  0  0  0
   19.8071   19.1101   26.9817 N   0  3  0  0  0  0  0  0  0  0  0  0
   20.2848   18.2676   27.3178 H   0  0  0  0  0  0  0  0  0  0  0  0
   19.2538   19.4735   27.7654 H   0  0  0  0  0  0  0  0  0  0  0  0
   20.5297   19.8069   26.7762 H   0  0  0  0  0  0  0  0  0  0  0  0
  1  2  1  0  0  0  0
  1  3  1  0  0  0  0
  1  4  1  0  0  0  0
  1  5  1  0  0  0  0
  5  6  1  0  0  0  0
  5  7  1  0  0  0  0
  5  8  1  0  0  0  0
  8  9  1  0  0  0  0
  8 10  1  0  0  0  0
  8 11  1  0  0  0  0
 11 12  1  0  0  0  0
 11 13  1  0  0  0  0
 11 14  1  0  0  0  0
 14 15  1  0  0  0  0
 14 16  1  0  0  0  0
 14 17  1  0  0  0  0
 17 18  1  0  0  0  0
 17 19  1  0  0  0  0
 17 20  1  0  0  0  0
 20 21  1  0  0  0  0
 20 22  1  0  0  0  0
 20 23  1  0  0  0  0
 23 24  1  0  0  0  0
 23 25  1  0  0  0  0
 23 26  1  0  0  0  0
M  END
> <VM2 Rank>
127

> <Conf_Id>
1246

> <Probability>
0.01

> <Sum Probability>
99.66

> <Delta G>
3.727

> <G>
51.988

> <E>
19.143

> <-TS>
32.845

> <U+W>
-2.318

> <U>
51.425

> <W>
-53.744

> <W(PB)>
-56.027

> <W(SA)>
2.283

> <Valence>
5.322

> <Coulomb>
45.311

> <VdW>
0.792

> <VdW6>
-7.911

> <VdW12>
8.703

> <Bond>
0.240

> <Angle>
1.177

> <Pdih>
3.905

> <Idih>
0.000

> <Tether>
0.000

$$$$
VeraChem MOL file


 26 25  0  0  0  0  0  0  0  0999 V2000     
   20.3406   20.0866   19.7714 C   0  0  0  0  0  0  0  0  0  0  0  0
   19.3304   20.4798   19.5979 H   0  0  0  0  0  0  0  0  0  0  0  0
   21.0490   20.9183   19.6639 H   0  0  0  0  0  0  0  0  0  0  0  0
   20.5616   19.3526   18.9856 H   0  0  0  0  0  0  0  0  0  0  0  0
   20.4549   19.4512   21.1733 C   0  0  0  0  0  0  0  0  0  0  0  0
   20.2645   20.2249   21.9288 H   0  0  0  0  0  0  0  0  0  0  0  0
   21.4818   19.0916   21.3276 H   0  0  0  0  0  0  0  0  0  0  0  0
   19.4584   18.2833   21.3529 C   0  0  0  0  0  0  0  0  0  0  0  0
   18.4311   18.6657   21.2782 H   0  0  0  0  0  0  0  0  0  0  0  0
   19.5825   17.5777   20.5198 H   0  0  0  0  0  0  0  0  0  0  0  0
   19.6208   17.4997   22.6812 C   0  0  0  0  0  0  0  0  0  0  0  0
   20.6104   17.0238   22.7208 H   0  0  0  0  0  0  0  0  0  0  0  0
   18.8965   16.6735   22.6672 H   0  0  0  0  0  0  0  0  0  0  0  0
   19.3736   18.3372   23.9631 C   0  0  0  0  0  0  0  0  0  0  0  0
   18.6793   19.1611   23.7472 H   0  0  0  0  0  0  0  0  0  0  0  0
   18.8671   17.6971   24.6978 H   0  0  0  0  0  0  0  0  0  0  0  0
   20.6769   18.8820   24.6011 C   0  0  0  0  0  0  0  0  0  0  0  0
   21.2488   19.4579   23.8649 H   0  0  0  0  0  0  0  0  0  0  0  0
   21.3208   18.0460   24.9049 H   0  0  0  0  0  0  0  0  0  0  0  0
   20.4077   19.7879   25.8181 C   0  0  0  0  0  0  0  0  0  0  0  0
   21.3535   20.2017   26.1783 H   0  0  0  0  0  0  0  0  0  0  0  0
   19.7626   20.6195   25.5221 H   0  0  0  0  0  0  0  0  0  0  0  0
   19.7479   19.0711   26.9798 N   0  3  0  0  0  0  0  0  0  0  0  0
   18.8339   18.6879   26.7196 H   0  0  0  0  0  0  0  0  0  0  0  0
   19.5946   19.6984   27.7768 H   0  0  0  0  0  0  0  0  0  0  0  0
   20.3188   18.2901   27.3190 H   0  0  0  0  0  0  0  0  0  0  0  0
  1  2  1  0  0  0  0
  1  3  1  0  0  0  0
  1  4  1  0  0  0  0
  1  5  1  0  0  0  0
  5  6  1  0  0  0  0
  5  7  1  0  0  0  0
  5  8  1  0  0  0  0
  8  9  1  0  0  0  0
  8 10  1  0  0  0  0
  8 11  1  0  0  0  0
 11 12  1  0  0  0  0
 11 13  1  0  0  0  0
 11 14  1  0  0  0  0
 14 15  1  0  0  0  0
 14 16  1  0  0  0  0
 14 17  1  0  0  0  0
 17 18  1  0  0  0  0
 17 19  1  0  0  0  0
 17 20  1  0  0  0  0
 20 21  1  0  0  0  0
 20 22  1  0  0  0  0
 20 23  1  0  0  0  0
 23 24  1  0  0  0  0
 23 25  1  0  0  0  0
 23 26  1  0  0  0  0
M  END
> <VM2 Rank>
128

> <Conf_Id>
1244

> <Probability>
0.01

> <Sum Probability>
99.68

> <Delta G>
3.730

> <G>
51.991

> <E>
19.146

> <-TS>
32.845

> <U+W>
-2.316

> <U>
51.425

> <W>
-53.741

> <W(PB)>
-56.025

> <W(SA)>
2.284

> <Valence>
5.323

> <Coulomb>
45.311

> <VdW>
0.792

> <VdW6>
-7.911

> <VdW12>
8.703

> <Bond>
0.240

> <Angle>
1.176

> <Pdih>
3.906

> <Idih>
0.000

> <Tether>
0.000

$$$$
VeraChem MOL file


 26 25  0  0  0  0  0  0  0  0999 V2000     
   18.6347   19.3930   20.7727 C   0  0  0  0  0  0  0  0  0  0  0  0
   17.8141   19.2494   20.0579 H   0  0  0  0  0  0  0  0  0  0  0  0
   18.2415   19.1672   21.7716 H   0  0  0  0  0  0  0  0  0  0  0  0
   18.9264   20.4508   20.7414 H   0  0  0  0  0  0  0  0  0  0  0  0
   19.8253   18.4757   20.4184 C   0  0  0  0  0  0  0  0  0  0  0  0
   20.0732   18.6146   19.3568 H   0  0  0  0  0  0  0  0  0  0  0  0
   19.5196   17.4254   20.5242 H   0  0  0  0  0  0  0  0  0  0  0  0
   21.1023   18.7323   21.2588 C   0  0  0  0  0  0  0  0  0  0  0  0
   21.8841   18.0563   20.8858 H   0  0  0  0  0  0  0  0  0  0  0  0
   21.4776   19.7483   21.0743 H   0  0  0  0  0  0  0  0  0  0  0  0
   20.9371   18.4861   22.7812 C   0  0  0  0  0  0  0  0  0  0  0  0
   21.8780   18.0723   23.1695 H   0  0  0  0  0  0  0  0  0  0  0  0
   20.1738   17.7152   22.9502 H   0  0  0  0  0  0  0  0  0  0  0  0
   20.6114   19.7742   23.5807 C   0  0  0  0  0  0  0  0  0  0  0  0
   21.4046   20.5139   23.4055 H   0  0  0  0  0  0  0  0  0  0  0  0
   19.6829   20.2311   23.2182 H   0  0  0  0  0  0  0  0  0  0  0  0
   20.4953   19.5273   25.1031 C   0  0  0  0  0  0  0  0  0  0  0  0
   20.3700   20.4924   25.6119 H   0  0  0  0  0  0  0  0  0  0  0  0
   21.4305   19.0921   25.4799 H   0  0  0  0  0  0  0  0  0  0  0  0
   19.3124   18.6102   25.4666 C   0  0  0  0  0  0  0  0  0  0  0  0
   18.3817   19.0444   25.0916 H   0  0  0  0  0  0  0  0  0  0  0  0
   19.4470   17.6301   25.0022 H   0  0  0  0  0  0  0  0  0  0  0  0
   19.1625   18.4001   26.9595 N   0  3  0  0  0  0  0  0  0  0  0  0
   19.0040   19.2833   27.4556 H   0  0  0  0  0  0  0  0  0  0  0  0
   19.9971   17.9689   27.3703 H   0  0  0  0  0  0  0  0  0  0  0  0
   18.3701   17.7873   27.1804 H   0  0  0  0  0  0  0  0  0  0  0  0
  1  2  1  0  0  0  0
  1  3  1  0  0  0  0
  1  4  1  0  0  0  0
  1  5  1  0  0  0  0
  5  6  1  0  0  0  0
  5  7  1  0  0  0  0
  5  8  1  0  0  0  0
  8  9  1  0  0  0  0
  8 10  1  0  0  0  0
  8 11  1  0  0  0  0
 11 12  1  0  0  0  0
 11 13  1  0  0  0  0
 11 14  1  0  0  0  0
 14 15  1  0  0  0  0
 14 16  1  0  0  0  0
 14 17  1  0  0  0  0
 17 18  1  0  0  0  0
 17 19  1  0  0  0  0
 17 20  1  0  0  0  0
 20 21  1  0  0  0  0
 20 22  1  0  0  0  0
 20 23  1  0  0  0  0
 23 24  1  0  0  0  0
 23 25  1  0  0  0  0
 23 26  1  0  0  0  0
M  END
> <VM2 Rank>
129

> <Conf_Id>
556

> <Probability>
0.01

> <Sum Probability>
99.69

> <Delta G>
3.764

> <G>
52.026

> <E>
19.238

> <-TS>
32.788

> <U+W>
-2.224

> <U>
51.443

> <W>
-53.667

> <W(PB)>
-55.926

> <W(SA)>
2.259

> <Valence>
5.420

> <Coulomb>
45.330

> <VdW>
0.692

> <VdW6>
-8.008

> <VdW12>
8.700

> <Bond>
0.240

> <Angle>
1.285

> <Pdih>
3.895

> <Idih>
0.000

> <Tether>
0.000

$$$$
VeraChem MOL file


 26 25  0  0  0  0  0  0  0  0999 V2000     
   20.5604   20.5080   20.8202 C   0  0  0  0  0  0  0  0  0  0  0  0
   19.7071   20.9001   20.2517 H   0  0  0  0  0  0  0  0  0  0  0  0
   20.4271   20.7960   21.8687 H   0  0  0  0  0  0  0  0  0  0  0  0
   21.4646   21.0083   20.4502 H   0  0  0  0  0  0  0  0  0  0  0  0
   20.6807   18.9758   20.6470 C   0  0  0  0  0  0  0  0  0  0  0  0
   21.5791   18.6026   21.1580 H   0  0  0  0  0  0  0  0  0  0  0  0
   20.8325   18.7673   19.5787 H   0  0  0  0  0  0  0  0  0  0  0  0
   19.4262   18.2016   21.1277 C   0  0  0  0  0  0  0  0  0  0  0  0
   18.5282   18.8241   21.0126 H   0  0  0  0  0  0  0  0  0  0  0  0
   19.2777   17.3427   20.4586 H   0  0  0  0  0  0  0  0  0  0  0  0
   19.5133   17.6541   22.5758 C   0  0  0  0  0  0  0  0  0  0  0  0
   20.3519   16.9479   22.6488 H   0  0  0  0  0  0  0  0  0  0  0  0
   18.6043   17.0707   22.7769 H   0  0  0  0  0  0  0  0  0  0  0  0
   19.6635   18.7440   23.6624 C   0  0  0  0  0  0  0  0  0  0  0  0
   20.6303   19.2473   23.5396 H   0  0  0  0  0  0  0  0  0  0  0  0
   18.8803   19.5036   23.5326 H   0  0  0  0  0  0  0  0  0  0  0  0
   19.5739   18.1490   25.0877 C   0  0  0  0  0  0  0  0  0  0  0  0
   20.3678   17.4048   25.2355 H   0  0  0  0  0  0  0  0  0  0  0  0
   18.6202   17.6166   25.2008 H   0  0  0  0  0  0  0  0  0  0  0  0
   19.6644   19.2238   26.1882 C   0  0  0  0  0  0  0  0  0  0  0  0
   18.8807   19.9713   26.0380 H   0  0  0  0  0  0  0  0  0  0  0  0
   19.5075   18.7570   27.1644 H   0  0  0  0  0  0  0  0  0  0  0  0
   20.9986   19.9427   26.2320 N   0  3  0  0  0  0  0  0  0  0  0  0
   21.1932   20.4362   25.3555 H   0  0  0  0  0  0  0  0  0  0  0  0
   21.7753   19.2936   26.3942 H   0  0  0  0  0  0  0  0  0  0  0  0
   21.0300   20.6407   26.9831 H   0  0  0  0  0  0  0  0  0  0  0  0
  1  2  1  0  0  0  0
  1  3  1  0  0  0  0
  1  4  1  0  0  0  0
  1  5  1  0  0  0  0
  5  6  1  0  0  0  0
  5  7  1  0  0  0  0
  5  8  1  0  0  0  0
  8  9  1  0  0  0  0
  8 10  1  0  0  0  0
  8 11  1  0  0  0  0
 11 12  1  0  0  0  0
 11 13  1  0  0  0  0
 11 14  1  0  0  0  0
 14 15  1  0  0  0  0
 14 16  1  0  0  0  0
 14 17  1  0  0  0  0
 17 18  1  0  0  0  0
 17 19  1  0  0  0  0
 17 20  1  0  0  0  0
 20 21  1  0  0  0  0
 20 22  1  0  0  0  0
 20 23  1  0  0  0  0
 23 24  1  0  0  0  0
 23 25  1  0  0  0  0
 23 26  1  0  0  0  0
M  END
> <VM2 Rank>
130

> <Conf_Id>
1060

> <Probability>
0.01

> <Sum Probability>
99.70

> <Delta G>
3.779

> <G>
52.040

> <E>
19.238

> <-TS>
32.803

> <U+W>
-2.224

> <U>
51.677

> <W>
-53.901

> <W(PB)>
-56.170

> <W(SA)>
2.269

> <Valence>
5.252

> <Coulomb>
45.637

> <VdW>
0.787

> <VdW6>
-7.893

> <VdW12>
8.681

> <Bond>
0.235

> <Angle>
1.222

> <Pdih>
3.795

> <Idih>
0.000

> <Tether>
0.000

$$$$
VeraChem MOL file


 26 25  0  0  0  0  0  0  0  0999 V2000     
   19.0968   19.7362   20.1606 C   0  0  0  0  0  0  0  0  0  0  0  0
   18.8555   20.3528   21.0332 H   0  0  0  0  0  0  0  0  0  0  0  0
   19.7930   20.3027   19.5286 H   0  0  0  0  0  0  0  0  0  0  0  0
   18.1705   19.5929   19.5893 H   0  0  0  0  0  0  0  0  0  0  0  0
   19.7015   18.3702   20.5609 C   0  0  0  0  0  0  0  0  0  0  0  0
   19.8852   17.7994   19.6398 H   0  0  0  0  0  0  0  0  0  0  0  0
   18.9730   17.7846   21.1388 H   0  0  0  0  0  0  0  0  0  0  0  0
   21.0364   18.4906   21.3404 C   0  0  0  0  0  0  0  0  0  0  0  0
   21.6775   17.6465   21.0510 H   0  0  0  0  0  0  0  0  0  0  0  0
   21.5789   19.3938   21.0288 H   0  0  0  0  0  0  0  0  0  0  0  0
   20.8942   18.4586   22.8841 C   0  0  0  0  0  0  0  0  0  0  0  0
   21.9021   18.4697   23.3216 H   0  0  0  0  0  0  0  0  0  0  0  0
   20.4408   17.5039   23.1828 H   0  0  0  0  0  0  0  0  0  0  0  0
   20.0774   19.6346   23.4730 C   0  0  0  0  0  0  0  0  0  0  0  0
   20.4510   20.5805   23.0573 H   0  0  0  0  0  0  0  0  0  0  0  0
   19.0262   19.5461   23.1694 H   0  0  0  0  0  0  0  0  0  0  0  0
   20.1489   19.7063   25.0164 C   0  0  0  0  0  0  0  0  0  0  0  0
   19.6082   20.5992   25.3575 H   0  0  0  0  0  0  0  0  0  0  0  0
   21.1932   19.8314   25.3324 H   0  0  0  0  0  0  0  0  0  0  0  0
   19.5478   18.4621   25.6965 C   0  0  0  0  0  0  0  0  0  0  0  0
   18.5068   18.3396   25.3853 H   0  0  0  0  0  0  0  0  0  0  0  0
   20.1045   17.5708   25.3955 H   0  0  0  0  0  0  0  0  0  0  0  0
   19.5780   18.5404   27.2092 N   0  3  0  0  0  0  0  0  0  0  0  0
   20.5342   18.6299   27.5681 H   0  0  0  0  0  0  0  0  0  0  0  0
   19.1736   17.7030   27.6423 H   0  0  0  0  0  0  0  0  0  0  0  0
   19.0472   19.3440   27.5608 H   0  0  0  0  0  0  0  0  0  0  0  0
  1  2  1  0  0  0  0
  1  3  1  0  0  0  0
  1  4  1  0  0  0  0
  1  5  1  0  0  0  0
  5  6  1  0  0  0  0
  5  7  1  0  0  0  0
  5  8  1  0  0  0  0
  8  9  1  0  0  0  0
  8 10  1  0  0  0  0
  8 11  1  0  0  0  0
 11 12  1  0  0  0  0
 11 13  1  0  0  0  0
 11 14  1  0  0  0  0
 14 15  1  0  0  0  0
 14 16  1  0  0  0  0
 14 17  1  0  0  0  0
 17 18  1  0  0  0  0
 17 19  1  0  0  0  0
 17 20  1  0  0  0  0
 20 21  1  0  0  0  0
 20 22  1  0  0  0  0
 20 23  1  0  0  0  0
 23 24  1  0  0  0  0
 23 25  1  0  0  0  0
 23 26  1  0  0  0  0
M  END
> <VM2 Rank>
131

> <Conf_Id>
174

> <Probability>
0.01

> <Sum Probability>
99.72

> <Delta G>
3.781

> <G>
52.043

> <E>
19.253

> <-TS>
32.790

> <U+W>
-2.209

> <U>
51.296

> <W>
-53.505

> <W(PB)>
-55.787

> <W(SA)>
2.282

> <Valence>
5.428

> <Coulomb>
45.118

> <VdW>
0.751

> <VdW6>
-7.913

> <VdW12>
8.663

> <Bond>
0.235

> <Angle>
1.292

> <Pdih>
3.901

> <Idih>
0.000

> <Tether>
0.000

$$$$
VeraChem MOL file


 26 25  0  0  0  0  0  0  0  0999 V2000     
   19.0609   20.0059   20.0213 C   0  0  0  0  0  0  0  0  0  0  0  0
   18.1180   20.2186   20.5419 H   0  0  0  0  0  0  0  0  0  0  0  0
   19.6629   20.9240   20.0154 H   0  0  0  0  0  0  0  0  0  0  0  0
   18.8214   19.7534   18.9803 H   0  0  0  0  0  0  0  0  0  0  0  0
   19.8216   18.8480   20.7016 C   0  0  0  0  0  0  0  0  0  0  0  0
   20.7412   18.6358   20.1384 H   0  0  0  0  0  0  0  0  0  0  0  0
   19.2086   17.9366   20.6628 H   0  0  0  0  0  0  0  0  0  0  0  0
   20.1720   19.1782   22.1694 C   0  0  0  0  0  0  0  0  0  0  0  0
   20.7871   20.0880   22.1988 H   0  0  0  0  0  0  0  0  0  0  0  0
   19.2467   19.4021   22.7110 H   0  0  0  0  0  0  0  0  0  0  0  0
   20.9351   18.0159   22.8509 C   0  0  0  0  0  0  0  0  0  0  0  0
   21.8284   17.7977   22.2492 H   0  0  0  0  0  0  0  0  0  0  0  0
   20.3285   17.1000   22.8347 H   0  0  0  0  0  0  0  0  0  0  0  0
   21.3962   18.3223   24.3001 C   0  0  0  0  0  0  0  0  0  0  0  0
   22.2988   17.7272   24.4967 H   0  0  0  0  0  0  0  0  0  0  0  0
   21.7141   19.3697   24.3877 H   0  0  0  0  0  0  0  0  0  0  0  0
   20.3643   17.9671   25.4038 C   0  0  0  0  0  0  0  0  0  0  0  0
   20.8355   18.1012   26.3866 H   0  0  0  0  0  0  0  0  0  0  0  0
   20.1129   16.9005   25.3336 H   0  0  0  0  0  0  0  0  0  0  0  0
   19.0586   18.7842   25.3707 C   0  0  0  0  0  0  0  0  0  0  0  0
   18.5322   18.6043   24.4309 H   0  0  0  0  0  0  0  0  0  0  0  0
   18.4082   18.4578   26.1868 H   0  0  0  0  0  0  0  0  0  0  0  0
   19.2721   20.2773   25.5231 N   0  3  0  0  0  0  0  0  0  0  0  0
   18.3860   20.7936   25.5015 H   0  0  0  0  0  0  0  0  0  0  0  0
   19.8608   20.6518   24.7729 H   0  0  0  0  0  0  0  0  0  0  0  0
   19.7303   20.5058   26.4112 H   0  0  0  0  0  0  0  0  0  0  0  0
  1  2  1  0  0  0  0
  1  3  1  0  0  0  0
  1  4  1  0  0  0  0
  1  5  1  0  0  0  0
  5  6  1  0  0  0  0
  5  7  1  0  0  0  0
  5  8  1  0  0  0  0
  8  9  1  0  0  0  0
  8 10  1  0  0  0  0
  8 11  1  0  0  0  0
 11 12  1  0  0  0  0
 11 13  1  0  0  0  0
 11 14  1  0  0  0  0
 14 15  1  0  0  0  0
 14 16  1  0  0  0  0
 14 17  1  0  0  0  0
 17 18  1  0  0  0  0
 17 19  1  0  0  0  0
 17 20  1  0  0  0  0
 20 21  1  0  0  0  0
 20 22  1  0  0  0  0
 20 23  1  0  0  0  0
 23 24  1  0  0  0  0
 23 25  1  0  0  0  0
 23 26  1  0  0  0  0
M  END
> <VM2 Rank>
132

> <Conf_Id>
402

> <Probability>
0.01

> <Sum Probability>
99.73

> <Delta G>
3.799

> <G>
52.060

> <E>
19.192

> <-TS>
32.868

> <U+W>
-2.270

> <U>
51.830

> <W>
-54.100

> <W(PB)>
-56.379

> <W(SA)>
2.279

> <Valence>
4.864

> <Coulomb>
46.522

> <VdW>
0.444

> <VdW6>
-8.267

> <VdW12>
8.711

> <Bond>
0.239

> <Angle>
1.440

> <Pdih>
3.185

> <Idih>
0.000

> <Tether>
0.000

$$$$
VeraChem MOL file


 26 25  0  0  0  0  0  0  0  0999 V2000     
   19.7072   19.6273   19.8851 C   0  0  0  0  0  0  0  0  0  0  0  0
   19.2195   20.5454   20.2377 H   0  0  0  0  0  0  0  0  0  0  0  0
   20.0160   19.7895   18.8443 H   0  0  0  0  0  0  0  0  0  0  0  0
   18.9637   18.8204   19.8873 H   0  0  0  0  0  0  0  0  0  0  0  0
   20.9289   19.2744   20.7635 C   0  0  0  0  0  0  0  0  0  0  0  0
   21.6912   20.0567   20.6428 H   0  0  0  0  0  0  0  0  0  0  0  0
   21.3857   18.3421   20.4033 H   0  0  0  0  0  0  0  0  0  0  0  0
   20.5844   19.1424   22.2665 C   0  0  0  0  0  0  0  0  0  0  0  0
   21.5158   18.9814   22.8264 H   0  0  0  0  0  0  0  0  0  0  0  0
   20.1618   20.0928   22.6158 H   0  0  0  0  0  0  0  0  0  0  0  0
   19.5988   17.9870   22.5686 C   0  0  0  0  0  0  0  0  0  0  0  0
   19.9290   17.0885   22.0292 H   0  0  0  0  0  0  0  0  0  0  0  0
   18.6054   18.2345   22.1714 H   0  0  0  0  0  0  0  0  0  0  0  0
   19.4701   17.6255   24.0712 C   0  0  0  0  0  0  0  0  0  0  0  0
   18.8019   16.7562   24.1428 H   0  0  0  0  0  0  0  0  0  0  0  0
   20.4378   17.2825   24.4593 H   0  0  0  0  0  0  0  0  0  0  0  0
   18.8857   18.7488   24.9692 C   0  0  0  0  0  0  0  0  0  0  0  0
   18.4204   18.2909   25.8522 H   0  0  0  0  0  0  0  0  0  0  0  0
   18.0756   19.2633   24.4356 H   0  0  0  0  0  0  0  0  0  0  0  0
   19.9176   19.7875   25.4573 C   0  0  0  0  0  0  0  0  0  0  0  0
   20.4139   20.2595   24.6079 H   0  0  0  0  0  0  0  0  0  0  0  0
   19.4011   20.5683   26.0220 H   0  0  0  0  0  0  0  0  0  0  0  0
   20.9883   19.2061   26.3596 N   0  3  0  0  0  0  0  0  0  0  0  0
   20.5856   18.7727   27.1968 H   0  0  0  0  0  0  0  0  0  0  0  0
   21.6463   19.9241   26.6815 H   0  0  0  0  0  0  0  0  0  0  0  0
   21.5387   18.4867   25.8811 H   0  0  0  0  0  0  0  0  0  0  0  0
  1  2  1  0  0  0  0
  1  3  1  0  0  0  0
  1  4  1  0  0  0  0
  1  5  1  0  0  0  0
  5  6  1  0  0  0  0
  5  7  1  0  0  0  0
  5  8  1  0  0  0  0
  8  9  1  0  0  0  0
  8 10  1  0  0  0  0
  8 11  1  0  0  0  0
 11 12  1  0  0  0  0
 11 13  1  0  0  0  0
 11 14  1  0  0  0  0
 14 15  1  0  0  0  0
 14 16  1  0  0  0  0
 14 17  1  0  0  0  0
 17 18  1  0  0  0  0
 17 19  1  0  0  0  0
 17 20  1  0  0  0  0
 20 21  1  0  0  0  0
 20 22  1  0  0  0  0
 20 23  1  0  0  0  0
 23 24  1  0  0  0  0
 23 25  1  0  0  0  0
 23 26  1  0  0  0  0
M  END
> <VM2 Rank>
133

> <Conf_Id>
1238

> <Probability>
0.01

> <Sum Probability>
99.74

> <Delta G>
3.800

> <G>
52.061

> <E>
19.187

> <-TS>
32.874

> <U+W>
-2.275

> <U>
51.886

> <W>
-54.161

> <W(PB)>
-56.424

> <W(SA)>
2.264

> <Valence>
5.154

> <Coulomb>
46.018

> <VdW>
0.714

> <VdW6>
-8.701

> <VdW12>
9.415

> <Bond>
0.265

> <Angle>
1.544

> <Pdih>
3.345

> <Idih>
0.000

> <Tether>
0.000

$$$$
VeraChem MOL file


 26 25  0  0  0  0  0  0  0  0999 V2000     
   19.6424   19.5847   19.8830 C   0  0  0  0  0  0  0  0  0  0  0  0
   18.9742   20.3836   20.2296 H   0  0  0  0  0  0  0  0  0  0  0  0
   20.6753   19.9494   19.9445 H   0  0  0  0  0  0  0  0  0  0  0  0
   19.4206   19.3969   18.8244 H   0  0  0  0  0  0  0  0  0  0  0  0
   19.4460   18.2964   20.7140 C   0  0  0  0  0  0  0  0  0  0  0  0
   20.1398   17.5203   20.3617 H   0  0  0  0  0  0  0  0  0  0  0  0
   18.4338   17.9082   20.5340 H   0  0  0  0  0  0  0  0  0  0  0  0
   19.6327   18.5146   22.2347 C   0  0  0  0  0  0  0  0  0  0  0  0
   18.9094   19.2668   22.5739 H   0  0  0  0  0  0  0  0  0  0  0  0
   19.3887   17.5785   22.7553 H   0  0  0  0  0  0  0  0  0  0  0  0
   21.0669   18.9551   22.6177 C   0  0  0  0  0  0  0  0  0  0  0  0
   21.2481   19.9774   22.2596 H   0  0  0  0  0  0  0  0  0  0  0  0
   21.7875   18.3142   22.0913 H   0  0  0  0  0  0  0  0  0  0  0  0
   21.3794   18.8848   24.1350 C   0  0  0  0  0  0  0  0  0  0  0  0
   21.2965   17.8489   24.4880 H   0  0  0  0  0  0  0  0  0  0  0  0
   22.4369   19.1538   24.2643 H   0  0  0  0  0  0  0  0  0  0  0  0
   20.5352   19.8368   25.0242 C   0  0  0  0  0  0  0  0  0  0  0  0
   20.4055   20.8001   24.5133 H   0  0  0  0  0  0  0  0  0  0  0  0
   21.0973   20.0568   25.9415 H   0  0  0  0  0  0  0  0  0  0  0  0
   19.1533   19.2834   25.4317 C   0  0  0  0  0  0  0  0  0  0  0  0
   18.6125   20.0483   25.9955 H   0  0  0  0  0  0  0  0  0  0  0  0
   18.5645   19.0394   24.5461 H   0  0  0  0  0  0  0  0  0  0  0  0
   19.2251   18.0432   26.3008 N   0  3  0  0  0  0  0  0  0  0  0  0
   18.2923   17.7118   26.5695 H   0  0  0  0  0  0  0  0  0  0  0  0
   19.7423   18.2167   27.1688 H   0  0  0  0  0  0  0  0  0  0  0  0
   19.6923   17.2687   25.8197 H   0  0  0  0  0  0  0  0  0  0  0  0
  1  2  1  0  0  0  0
  1  3  1  0  0  0  0
  1  4  1  0  0  0  0
  1  5  1  0  0  0  0
  5  6  1  0  0  0  0
  5  7  1  0  0  0  0
  5  8  1  0  0  0  0
  8  9  1  0  0  0  0
  8 10  1  0  0  0  0
  8 11  1  0  0  0  0
 11 12  1  0  0  0  0
 11 13  1  0  0  0  0
 11 14  1  0  0  0  0
 14 15  1  0  0  0  0
 14 16  1  0  0  0  0
 14 17  1  0  0  0  0
 17 18  1  0  0  0  0
 17 19  1  0  0  0  0
 17 20  1  0  0  0  0
 20 21  1  0  0  0  0
 20 22  1  0  0  0  0
 20 23  1  0  0  0  0
 23 24  1  0  0  0  0
 23 25  1  0  0  0  0
 23 26  1  0  0  0  0
M  END
> <VM2 Rank>
134

> <Conf_Id>
420

> <Probability>
0.01

> <Sum Probability>
99.76

> <Delta G>
3.813

> <G>
52.074

> <E>
19.200

> <-TS>
32.874

> <U+W>
-2.262

> <U>
51.886

> <W>
-54.148

> <W(PB)>
-56.400

> <W(SA)>
2.252

> <Valence>
5.153

> <Coulomb>
46.018

> <VdW>
0.714

> <VdW6>
-8.701

> <VdW12>
9.416

> <Bond>
0.265

> <Angle>
1.543

> <Pdih>
3.345

> <Idih>
0.000

> <Tether>
0.000

$$$$
VeraChem MOL file


 26 25  0  0  0  0  0  0  0  0999 V2000     
   19.5406   20.3227   20.0373 C   0  0  0  0  0  0  0  0  0  0  0  0
   18.4615   20.1305   19.9750 H   0  0  0  0  0  0  0  0  0  0  0  0
   19.6900   21.2568   20.5945 H   0  0  0  0  0  0  0  0  0  0  0  0
   19.9150   20.4756   19.0168 H   0  0  0  0  0  0  0  0  0  0  0  0
   20.2751   19.1475   20.7168 C   0  0  0  0  0  0  0  0  0  0  0  0
   21.3545   19.3538   20.7347 H   0  0  0  0  0  0  0  0  0  0  0  0
   20.1364   18.2364   20.1181 H   0  0  0  0  0  0  0  0  0  0  0  0
   19.7661   18.9102   22.1558 C   0  0  0  0  0  0  0  0  0  0  0  0
   19.8973   19.8319   22.7328 H   0  0  0  0  0  0  0  0  0  0  0  0
   18.6878   18.7016   22.1285 H   0  0  0  0  0  0  0  0  0  0  0  0
   20.5037   17.7310   22.8365 C   0  0  0  0  0  0  0  0  0  0  0  0
   21.5837   17.9290   22.8766 H   0  0  0  0  0  0  0  0  0  0  0  0
   20.3825   16.8428   22.2009 H   0  0  0  0  0  0  0  0  0  0  0  0
   19.9743   17.3832   24.2525 C   0  0  0  0  0  0  0  0  0  0  0  0
   18.8832   17.5001   24.2930 H   0  0  0  0  0  0  0  0  0  0  0  0
   20.1585   16.3138   24.4251 H   0  0  0  0  0  0  0  0  0  0  0  0
   20.6534   18.1580   25.4135 C   0  0  0  0  0  0  0  0  0  0  0  0
   21.7352   17.9718   25.3879 H   0  0  0  0  0  0  0  0  0  0  0  0
   20.2998   17.7475   26.3687 H   0  0  0  0  0  0  0  0  0  0  0  0
   20.4154   19.6801   25.4161 C   0  0  0  0  0  0  0  0  0  0  0  0
   20.9320   20.1244   26.2711 H   0  0  0  0  0  0  0  0  0  0  0  0
   20.8305   20.1220   24.5076 H   0  0  0  0  0  0  0  0  0  0  0  0
   18.9525   20.0663   25.5125 N   0  3  0  0  0  0  0  0  0  0  0  0
   18.8261   21.0842   25.5163 H   0  0  0  0  0  0  0  0  0  0  0  0
   18.5219   19.7078   26.3709 H   0  0  0  0  0  0  0  0  0  0  0  0
   18.4127   19.6955   24.7246 H   0  0  0  0  0  0  0  0  0  0  0  0
  1  2  1  0  0  0  0
  1  3  1  0  0  0  0
  1  4  1  0  0  0  0
  1  5  1  0  0  0  0
  5  6  1  0  0  0  0
  5  7  1  0  0  0  0
  5  8  1  0  0  0  0
  8  9  1  0  0  0  0
  8 10  1  0  0  0  0
  8 11  1  0  0  0  0
 11 12  1  0  0  0  0
 11 13  1  0  0  0  0
 11 14  1  0  0  0  0
 14 15  1  0  0  0  0
 14 16  1  0  0  0  0
 14 17  1  0  0  0  0
 17 18  1  0  0  0  0
 17 19  1  0  0  0  0
 17 20  1  0  0  0  0
 20 21  1  0  0  0  0
 20 22  1  0  0  0  0
 20 23  1  0  0  0  0
 23 24  1  0  0  0  0
 23 25  1  0  0  0  0
 23 26  1  0  0  0  0
M  END
> <VM2 Rank>
135

> <Conf_Id>
398

> <Probability>
0.01

> <Sum Probability>
99.77

> <Delta G>
3.830

> <G>
52.092

> <E>
19.223

> <-TS>
32.869

> <U+W>
-2.239

> <U>
51.830

> <W>
-54.069

> <W(PB)>
-56.350

> <W(SA)>
2.281

> <Valence>
4.864

> <Coulomb>
46.522

> <VdW>
0.444

> <VdW6>
-8.266

> <VdW12>
8.710

> <Bond>
0.239

> <Angle>
1.440

> <Pdih>
3.185

> <Idih>
0.000

> <Tether>
0.000

$$$$
VeraChem MOL file


 26 25  0  0  0  0  0  0  0  0999 V2000     
   21.1874   19.8152   20.1004 C   0  0  0  0  0  0  0  0  0  0  0  0
   20.7290   20.8087   20.0114 H   0  0  0  0  0  0  0  0  0  0  0  0
   22.2773   19.9460   20.1048 H   0  0  0  0  0  0  0  0  0  0  0  0
   20.9218   19.2346   19.2073 H   0  0  0  0  0  0  0  0  0  0  0  0
   20.7191   19.1017   21.3864 C   0  0  0  0  0  0  0  0  0  0  0  0
   21.0369   19.6941   22.2542 H   0  0  0  0  0  0  0  0  0  0  0  0
   21.2137   18.1233   21.4613 H   0  0  0  0  0  0  0  0  0  0  0  0
   19.1848   18.9165   21.4093 C   0  0  0  0  0  0  0  0  0  0  0  0
   18.6989   19.9019   21.4260 H   0  0  0  0  0  0  0  0  0  0  0  0
   18.8696   18.4371   20.4722 H   0  0  0  0  0  0  0  0  0  0  0  0
   18.6586   18.0624   22.5918 C   0  0  0  0  0  0  0  0  0  0  0  0
   19.0522   17.0390   22.5226 H   0  0  0  0  0  0  0  0  0  0  0  0
   17.5704   17.9685   22.4717 H   0  0  0  0  0  0  0  0  0  0  0  0
   18.9393   18.6550   23.9974 C   0  0  0  0  0  0  0  0  0  0  0  0
   18.9885   19.7502   23.9361 H   0  0  0  0  0  0  0  0  0  0  0  0
   18.0837   18.4256   24.6478 H   0  0  0  0  0  0  0  0  0  0  0  0
   20.2155   18.0806   24.6640 C   0  0  0  0  0  0  0  0  0  0  0  0
   21.1025   18.2759   24.0509 H   0  0  0  0  0  0  0  0  0  0  0  0
   20.1242   16.9886   24.7349 H   0  0  0  0  0  0  0  0  0  0  0  0
   20.4453   18.6394   26.0812 C   0  0  0  0  0  0  0  0  0  0  0  0
   19.5631   18.4508   26.6990 H   0  0  0  0  0  0  0  0  0  0  0  0
   21.2974   18.1294   26.5386 H   0  0  0  0  0  0  0  0  0  0  0  0
   20.7311   20.1281   26.1105 N   0  3  0  0  0  0  0  0  0  0  0  0
   21.5671   20.3663   25.5673 H   0  0  0  0  0  0  0  0  0  0  0  0
   20.8886   20.4662   27.0661 H   0  0  0  0  0  0  0  0  0  0  0  0
   19.9529   20.6717   25.7247 H   0  0  0  0  0  0  0  0  0  0  0  0
  1  2  1  0  0  0  0
  1  3  1  0  0  0  0
  1  4  1  0  0  0  0
  1  5  1  0  0  0  0
  5  6  1  0  0  0  0
  5  7  1  0  0  0  0
  5  8  1  0  0  0  0
  8  9  1  0  0  0  0
  8 10  1  0  0  0  0
  8 11  1  0  0  0  0
 11 12  1  0  0  0  0
 11 13  1  0  0  0  0
 11 14  1  0  0  0  0
 14 15  1  0  0  0  0
 14 16  1  0  0  0  0
 14 17  1  0  0  0  0
 17 18  1  0  0  0  0
 17 19  1  0  0  0  0
 17 20  1  0  0  0  0
 20 21  1  0  0  0  0
 20 22  1  0  0  0  0
 20 23  1  0  0  0  0
 23 24  1  0  0  0  0
 23 25  1  0  0  0  0
 23 26  1  0  0  0  0
M  END
> <VM2 Rank>
136

> <Conf_Id>
258

> <Probability>
0.01

> <Sum Probability>
99.78

> <Delta G>
3.853

> <G>
52.115

> <E>
19.297

> <-TS>
32.818

> <U+W>
-2.165

> <U>
51.954

> <W>
-54.119

> <W(PB)>
-56.405

> <W(SA)>
2.286

> <Valence>
5.280

> <Coulomb>
45.974

> <VdW>
0.700

> <VdW6>
-7.998

> <VdW12>
8.698

> <Bond>
0.241

> <Angle>
1.238

> <Pdih>
3.800

> <Idih>
0.000

> <Tether>
0.000

$$$$
VeraChem MOL file


 26 25  0  0  0  0  0  0  0  0999 V2000     
   20.3202   20.4300   20.7363 C   0  0  0  0  0  0  0  0  0  0  0  0
   21.3966   20.4766   20.5268 H   0  0  0  0  0  0  0  0  0  0  0  0
   19.8100   21.0899   20.0228 H   0  0  0  0  0  0  0  0  0  0  0  0
   20.1470   20.8342   21.7415 H   0  0  0  0  0  0  0  0  0  0  0  0
   19.7915   18.9834   20.6087 C   0  0  0  0  0  0  0  0  0  0  0  0
   19.8759   18.6674   19.5596 H   0  0  0  0  0  0  0  0  0  0  0  0
   18.7191   18.9588   20.8445 H   0  0  0  0  0  0  0  0  0  0  0  0
   20.5576   17.9665   21.4930 C   0  0  0  0  0  0  0  0  0  0  0  0
   20.1478   16.9629   21.3141 H   0  0  0  0  0  0  0  0  0  0  0  0
   21.6047   17.9263   21.1629 H   0  0  0  0  0  0  0  0  0  0  0  0
   20.5254   18.2607   23.0148 C   0  0  0  0  0  0  0  0  0  0  0  0
   21.0366   19.2110   23.2076 H   0  0  0  0  0  0  0  0  0  0  0  0
   21.1055   17.4824   23.5295 H   0  0  0  0  0  0  0  0  0  0  0  0
   19.0922   18.2985   23.6010 C   0  0  0  0  0  0  0  0  0  0  0  0
   18.5553   19.1752   23.2148 H   0  0  0  0  0  0  0  0  0  0  0  0
   18.5402   17.4177   23.2453 H   0  0  0  0  0  0  0  0  0  0  0  0
   19.0352   18.3119   25.1499 C   0  0  0  0  0  0  0  0  0  0  0  0
   19.5232   17.4173   25.5591 H   0  0  0  0  0  0  0  0  0  0  0  0
   17.9807   18.2428   25.4482 H   0  0  0  0  0  0  0  0  0  0  0  0
   19.6245   19.5809   25.8001 C   0  0  0  0  0  0  0  0  0  0  0  0
   19.3355   20.4625   25.2218 H   0  0  0  0  0  0  0  0  0  0  0  0
   19.2143   19.6872   26.8080 H   0  0  0  0  0  0  0  0  0  0  0  0
   21.1344   19.5672   25.9372 N   0  3  0  0  0  0  0  0  0  0  0  0
   21.4842   20.4274   26.3732 H   0  0  0  0  0  0  0  0  0  0  0  0
   21.5976   19.4783   25.0286 H   0  0  0  0  0  0  0  0  0  0  0  0
   21.4551   18.7862   26.5188 H   0  0  0  0  0  0  0  0  0  0  0  0
  1  2  1  0  0  0  0
  1  3  1  0  0  0  0
  1  4  1  0  0  0  0
  1  5  1  0  0  0  0
  5  6  1  0  0  0  0
  5  7  1  0  0  0  0
  5  8  1  0  0  0  0
  8  9  1  0  0  0  0
  8 10  1  0  0  0  0
  8 11  1  0  0  0  0
 11 12  1  0  0  0  0
 11 13  1  0  0  0  0
 11 14  1  0  0  0  0
 14 15  1  0  0  0  0
 14 16  1  0  0  0  0
 14 17  1  0  0  0  0
 17 18  1  0  0  0  0
 17 19  1  0  0  0  0
 17 20  1  0  0  0  0
 20 21  1  0  0  0  0
 20 22  1  0  0  0  0
 20 23  1  0  0  0  0
 23 24  1  0  0  0  0
 23 25  1  0  0  0  0
 23 26  1  0  0  0  0
M  END
> <VM2 Rank>
137

> <Conf_Id>
855

> <Probability>
0.01

> <Sum Probability>
99.79

> <Delta G>
3.901

> <G>
52.162

> <E>
19.217

> <-TS>
32.945

> <U+W>
-2.245

> <U>
51.945

> <W>
-54.190

> <W(PB)>
-56.418

> <W(SA)>
2.228

> <Valence>
4.646

> <Coulomb>
46.716

> <VdW>
0.583

> <VdW6>
-8.945

> <VdW12>
9.528

> <Bond>
0.266

> <Angle>
1.504

> <Pdih>
2.877

> <Idih>
0.000

> <Tether>
0.000

$$$$
VeraChem MOL file


 26 25  0  0  0  0  0  0  0  0999 V2000     
   20.3936   20.1088   20.0762 C   0  0  0  0  0  0  0  0  0  0  0  0
   19.4537   20.5277   19.6939 H   0  0  0  0  0  0  0  0  0  0  0  0
   20.6734   20.6729   20.9726 H   0  0  0  0  0  0  0  0  0  0  0  0
   21.1680   20.2830   19.3180 H   0  0  0  0  0  0  0  0  0  0  0  0
   20.2468   18.5959   20.3618 C   0  0  0  0  0  0  0  0  0  0  0  0
   21.2115   18.1696   20.6702 H   0  0  0  0  0  0  0  0  0  0  0  0
   19.9844   18.0974   19.4182 H   0  0  0  0  0  0  0  0  0  0  0  0
   19.1534   18.2723   21.4124 C   0  0  0  0  0  0  0  0  0  0  0  0
   18.3674   19.0398   21.3920 H   0  0  0  0  0  0  0  0  0  0  0  0
   18.6599   17.3368   21.1145 H   0  0  0  0  0  0  0  0  0  0  0  0
   19.6751   18.0827   22.8604 C   0  0  0  0  0  0  0  0  0  0  0  0
   20.3807   17.2410   22.8855 H   0  0  0  0  0  0  0  0  0  0  0  0
   18.8242   17.7866   23.4876 H   0  0  0  0  0  0  0  0  0  0  0  0
   20.3519   19.3383   23.4635 C   0  0  0  0  0  0  0  0  0  0  0  0
   21.2557   19.5738   22.8873 H   0  0  0  0  0  0  0  0  0  0  0  0
   19.6816   20.2041   23.3718 H   0  0  0  0  0  0  0  0  0  0  0  0
   20.7617   19.1561   24.9441 C   0  0  0  0  0  0  0  0  0  0  0  0
   21.3396   20.0338   25.2629 H   0  0  0  0  0  0  0  0  0  0  0  0
   21.4290   18.2892   25.0388 H   0  0  0  0  0  0  0  0  0  0  0  0
   19.5522   18.9858   25.8826 C   0  0  0  0  0  0  0  0  0  0  0  0
   18.8878   19.8488   25.7866 H   0  0  0  0  0  0  0  0  0  0  0  0
   18.9927   18.0880   25.6082 H   0  0  0  0  0  0  0  0  0  0  0  0
   19.9465   18.8591   27.3400 N   0  3  0  0  0  0  0  0  0  0  0  0
   20.5525   18.0482   27.5027 H   0  0  0  0  0  0  0  0  0  0  0  0
   19.1278   18.7469   27.9479 H   0  0  0  0  0  0  0  0  0  0  0  0
   20.4534   19.6861   27.6719 H   0  0  0  0  0  0  0  0  0  0  0  0
  1  2  1  0  0  0  0
  1  3  1  0  0  0  0
  1  4  1  0  0  0  0
  1  5  1  0  0  0  0
  5  6  1  0  0  0  0
  5  7  1  0  0  0  0
  5  8  1  0  0  0  0
  8  9  1  0  0  0  0
  8 10  1  0  0  0  0
  8 11  1  0  0  0  0
 11 12  1  0  0  0  0
 11 13  1  0  0  0  0
 11 14  1  0  0  0  0
 14 15  1  0  0  0  0
 14 16  1  0  0  0  0
 14 17  1  0  0  0  0
 17 18  1  0  0  0  0
 17 19  1  0  0  0  0
 17 20  1  0  0  0  0
 20 21  1  0  0  0  0
 20 22  1  0  0  0  0
 20 23  1  0  0  0  0
 23 24  1  0  0  0  0
 23 25  1  0  0  0  0
 23 26  1  0  0  0  0
M  END
> <VM2 Rank>
138

> <Conf_Id>
190

> <Probability>
0.01

> <Sum Probability>
99.80

> <Delta G>
3.904

> <G>
52.165

> <E>
19.384

> <-TS>
32.781

> <U+W>
-2.078

> <U>
51.397

> <W>
-53.475

> <W(PB)>
-55.760

> <W(SA)>
2.285

> <Valence>
5.541

> <Coulomb>
45.028

> <VdW>
0.829

> <VdW6>
-7.846

> <VdW12>
8.675

> <Bond>
0.240

> <Angle>
1.341

> <Pdih>
3.960

> <Idih>
0.000

> <Tether>
0.000

$$$$
VeraChem MOL file


 26 25  0  0  0  0  0  0  0  0999 V2000     
   19.0652   18.3768   20.2229 C   0  0  0  0  0  0  0  0  0  0  0  0
   18.3778   19.2302   20.2864 H   0  0  0  0  0  0  0  0  0  0  0  0
   18.8505   17.8414   19.2890 H   0  0  0  0  0  0  0  0  0  0  0  0
   18.8489   17.6905   21.0510 H   0  0  0  0  0  0  0  0  0  0  0  0
   20.5370   18.8436   20.2510 C   0  0  0  0  0  0  0  0  0  0  0  0
   20.7499   19.3934   19.3236 H   0  0  0  0  0  0  0  0  0  0  0  0
   21.1978   17.9655   20.2423 H   0  0  0  0  0  0  0  0  0  0  0  0
   20.8961   19.7517   21.4549 C   0  0  0  0  0  0  0  0  0  0  0  0
   21.9447   20.0577   21.3362 H   0  0  0  0  0  0  0  0  0  0  0  0
   20.3107   20.6806   21.4154 H   0  0  0  0  0  0  0  0  0  0  0  0
   20.7436   19.0771   22.8431 C   0  0  0  0  0  0  0  0  0  0  0  0
   21.5509   19.4433   23.4913 H   0  0  0  0  0  0  0  0  0  0  0  0
   20.8941   17.9926   22.7522 H   0  0  0  0  0  0  0  0  0  0  0  0
   19.3850   19.3795   23.5264 C   0  0  0  0  0  0  0  0  0  0  0  0
   19.2967   20.4600   23.7053 H   0  0  0  0  0  0  0  0  0  0  0  0
   18.5588   19.1136   22.8565 H   0  0  0  0  0  0  0  0  0  0  0  0
   19.1972   18.6216   24.8617 C   0  0  0  0  0  0  0  0  0  0  0  0
   19.2566   17.5398   24.6827 H   0  0  0  0  0  0  0  0  0  0  0  0
   18.1881   18.8217   25.2459 H   0  0  0  0  0  0  0  0  0  0  0  0
   20.2314   19.0277   25.9283 C   0  0  0  0  0  0  0  0  0  0  0  0
   21.2388   18.7921   25.5758 H   0  0  0  0  0  0  0  0  0  0  0  0
   20.1718   20.1046   26.1073 H   0  0  0  0  0  0  0  0  0  0  0  0
   20.0256   18.3212   27.2527 N   0  3  0  0  0  0  0  0  0  0  0  0
   20.7237   18.6053   27.9486 H   0  0  0  0  0  0  0  0  0  0  0  0
   20.0962   17.3028   27.1575 H   0  0  0  0  0  0  0  0  0  0  0  0
   19.1043   18.5236   27.6546 H   0  0  0  0  0  0  0  0  0  0  0  0
  1  2  1  0  0  0  0
  1  3  1  0  0  0  0
  1  4  1  0  0  0  0
  1  5  1  0  0  0  0
  5  6  1  0  0  0  0
  5  7  1  0  0  0  0
  5  8  1  0  0  0  0
  8  9  1  0  0  0  0
  8 10  1  0  0  0  0
  8 11  1  0  0  0  0
 11 12  1  0  0  0  0
 11 13  1  0  0  0  0
 11 14  1  0  0  0  0
 14 15  1  0  0  0  0
 14 16  1  0  0  0  0
 14 17  1  0  0  0  0
 17 18  1  0  0  0  0
 17 19  1  0  0  0  0
 17 20  1  0  0  0  0
 20 21  1  0  0  0  0
 20 22  1  0  0  0  0
 20 23  1  0  0  0  0
 23 24  1  0  0  0  0
 23 25  1  0  0  0  0
 23 26  1  0  0  0  0
M  END
> <VM2 Rank>
139

> <Conf_Id>
1338

> <Probability>
0.01

> <Sum Probability>
99.81

> <Delta G>
3.922

> <G>
52.184

> <E>
19.360

> <-TS>
32.824

> <U+W>
-2.102

> <U>
51.310

> <W>
-53.412

> <W(PB)>
-55.696

> <W(SA)>
2.284

> <Valence>
5.462

> <Coulomb>
45.075

> <VdW>
0.773

> <VdW6>
-7.908

> <VdW12>
8.681

> <Bond>
0.240

> <Angle>
1.238

> <Pdih>
3.984

> <Idih>
0.000

> <Tether>
0.000

$$$$
VeraChem MOL file


 26 25  0  0  0  0  0  0  0  0999 V2000     
   18.6247   19.3117   20.6800 C   0  0  0  0  0  0  0  0  0  0  0  0
   18.2749   19.5992   21.6793 H   0  0  0  0  0  0  0  0  0  0  0  0
   18.2519   20.0622   19.9711 H   0  0  0  0  0  0  0  0  0  0  0  0
   18.1691   18.3477   20.4193 H   0  0  0  0  0  0  0  0  0  0  0  0
   20.1670   19.2311   20.6213 C   0  0  0  0  0  0  0  0  0  0  0  0
   20.5996   20.1992   20.9072 H   0  0  0  0  0  0  0  0  0  0  0  0
   20.4727   19.0612   19.5795 H   0  0  0  0  0  0  0  0  0  0  0  0
   20.7593   18.0996   21.4997 C   0  0  0  0  0  0  0  0  0  0  0  0
   20.4007   17.1320   21.1226 H   0  0  0  0  0  0  0  0  0  0  0  0
   21.8504   18.0860   21.3709 H   0  0  0  0  0  0  0  0  0  0  0  0
   20.4311   18.1983   23.0117 C   0  0  0  0  0  0  0  0  0  0  0  0
   20.8945   17.3430   23.5224 H   0  0  0  0  0  0  0  0  0  0  0  0
   19.3486   18.0972   23.1512 H   0  0  0  0  0  0  0  0  0  0  0  0
   20.9315   19.5117   23.6624 C   0  0  0  0  0  0  0  0  0  0  0  0
   21.9739   19.6826   23.3601 H   0  0  0  0  0  0  0  0  0  0  0  0
   20.3550   20.3623   23.2748 H   0  0  0  0  0  0  0  0  0  0  0  0
   20.8694   19.5219   25.2111 C   0  0  0  0  0  0  0  0  0  0  0  0
   21.3327   20.4543   25.5602 H   0  0  0  0  0  0  0  0  0  0  0  0
   21.4805   18.7087   25.6246 H   0  0  0  0  0  0  0  0  0  0  0  0
   19.4421   19.4607   25.7938 C   0  0  0  0  0  0  0  0  0  0  0  0
   19.4583   19.8486   26.8159 H   0  0  0  0  0  0  0  0  0  0  0  0
   18.7726   20.0911   25.2026 H   0  0  0  0  0  0  0  0  0  0  0  0
   18.8558   18.0640   25.8611 N   0  3  0  0  0  0  0  0  0  0  0  0
   17.9080   18.0683   26.2535 H   0  0  0  0  0  0  0  0  0  0  0  0
   19.4203   17.4441   26.4511 H   0  0  0  0  0  0  0  0  0  0  0  0
   18.7982   17.6312   24.9352 H   0  0  0  0  0  0  0  0  0  0  0  0
  1  2  1  0  0  0  0
  1  3  1  0  0  0  0
  1  4  1  0  0  0  0
  1  5  1  0  0  0  0
  5  6  1  0  0  0  0
  5  7  1  0  0  0  0
  5  8  1  0  0  0  0
  8  9  1  0  0  0  0
  8 10  1  0  0  0  0
  8 11  1  0  0  0  0
 11 12  1  0  0  0  0
 11 13  1  0  0  0  0
 11 14  1  0  0  0  0
 14 15  1  0  0  0  0
 14 16  1  0  0  0  0
 14 17  1  0  0  0  0
 17 18  1  0  0  0  0
 17 19  1  0  0  0  0
 17 20  1  0  0  0  0
 20 21  1  0  0  0  0
 20 22  1  0  0  0  0
 20 23  1  0  0  0  0
 23 24  1  0  0  0  0
 23 25  1  0  0  0  0
 23 26  1  0  0  0  0
M  END
> <VM2 Rank>
140

> <Conf_Id>
1252

> <Probability>
0.01

> <Sum Probability>
99.82

> <Delta G>
3.944

> <G>
52.205

> <E>
19.259

> <-TS>
32.946

> <U+W>
-2.203

> <U>
51.945

> <W>
-54.148

> <W(PB)>
-56.367

> <W(SA)>
2.219

> <Valence>
4.646

> <Coulomb>
46.716

> <VdW>
0.583

> <VdW6>
-8.945

> <VdW12>
9.528

> <Bond>
0.266

> <Angle>
1.504

> <Pdih>
2.877

> <Idih>
0.000

> <Tether>
0.000

$$$$
VeraChem MOL file


 26 25  0  0  0  0  0  0  0  0999 V2000     
   20.5946   17.9693   19.8502 C   0  0  0  0  0  0  0  0  0  0  0  0
   21.3813   18.5851   19.3952 H   0  0  0  0  0  0  0  0  0  0  0  0
   20.9040   16.9187   19.7751 H   0  0  0  0  0  0  0  0  0  0  0  0
   19.6779   18.0938   19.2590 H   0  0  0  0  0  0  0  0  0  0  0  0
   20.3618   18.3648   21.3238 C   0  0  0  0  0  0  0  0  0  0  0  0
   21.2872   18.2054   21.8947 H   0  0  0  0  0  0  0  0  0  0  0  0
   19.5979   17.7019   21.7505 H   0  0  0  0  0  0  0  0  0  0  0  0
   19.9120   19.8377   21.4547 C   0  0  0  0  0  0  0  0  0  0  0  0
   20.6166   20.4756   20.9033 H   0  0  0  0  0  0  0  0  0  0  0  0
   18.9370   19.9664   20.9647 H   0  0  0  0  0  0  0  0  0  0  0  0
   19.8294   20.3560   22.9137 C   0  0  0  0  0  0  0  0  0  0  0  0
   19.5514   21.4181   22.8688 H   0  0  0  0  0  0  0  0  0  0  0  0
   20.8256   20.3338   23.3737 H   0  0  0  0  0  0  0  0  0  0  0  0
   18.7888   19.6255   23.8059 C   0  0  0  0  0  0  0  0  0  0  0  0
   18.3373   20.3571   24.4905 H   0  0  0  0  0  0  0  0  0  0  0  0
   17.9626   19.2557   23.1832 H   0  0  0  0  0  0  0  0  0  0  0  0
   19.3634   18.4641   24.6561 C   0  0  0  0  0  0  0  0  0  0  0  0
   19.8551   17.7222   24.0172 H   0  0  0  0  0  0  0  0  0  0  0  0
   18.5314   17.9451   25.1504 H   0  0  0  0  0  0  0  0  0  0  0  0
   20.3525   18.9513   25.7319 C   0  0  0  0  0  0  0  0  0  0  0  0
   21.2094   19.4362   25.2577 H   0  0  0  0  0  0  0  0  0  0  0  0
   19.8601   19.6808   26.3805 H   0  0  0  0  0  0  0  0  0  0  0  0
   20.8786   17.8302   26.6047 N   0  3  0  0  0  0  0  0  0  0  0  0
   21.3781   17.1217   26.0574 H   0  0  0  0  0  0  0  0  0  0  0  0
   20.1237   17.3490   27.1046 H   0  0  0  0  0  0  0  0  0  0  0  0
   21.5335   18.1757   27.3147 H   0  0  0  0  0  0  0  0  0  0  0  0
  1  2  1  0  0  0  0
  1  3  1  0  0  0  0
  1  4  1  0  0  0  0
  1  5  1  0  0  0  0
  5  6  1  0  0  0  0
  5  7  1  0  0  0  0
  5  8  1  0  0  0  0
  8  9  1  0  0  0  0
  8 10  1  0  0  0  0
  8 11  1  0  0  0  0
 11 12  1  0  0  0  0
 11 13  1  0  0  0  0
 11 14  1  0  0  0  0
 14 15  1  0  0  0  0
 14 16  1  0  0  0  0
 14 17  1  0  0  0  0
 17 18  1  0  0  0  0
 17 19  1  0  0  0  0
 17 20  1  0  0  0  0
 20 21  1  0  0  0  0
 20 22  1  0  0  0  0
 20 23  1  0  0  0  0
 23 24  1  0  0  0  0
 23 25  1  0  0  0  0
 23 26  1  0  0  0  0
M  END
> <VM2 Rank>
141

> <Conf_Id>
1102

> <Probability>
0.01

> <Sum Probability>
99.83

> <Delta G>
3.977

> <G>
52.238

> <E>
19.461

> <-TS>
32.778

> <U+W>
-2.001

> <U>
51.979

> <W>
-53.980

> <W(PB)>
-56.267

> <W(SA)>
2.287

> <Valence>
5.609

> <Coulomb>
45.670

> <VdW>
0.700

> <VdW6>
-7.954

> <VdW12>
8.655

> <Bond>
0.250

> <Angle>
1.398

> <Pdih>
3.961

> <Idih>
0.000

> <Tether>
0.000

$$$$
VeraChem MOL file


 26 25  0  0  0  0  0  0  0  0999 V2000     
   19.9361   17.5000   20.3296 C   0  0  0  0  0  0  0  0  0  0  0  0
   20.2787   17.9974   19.4128 H   0  0  0  0  0  0  0  0  0  0  0  0
   20.3165   16.4704   20.3163 H   0  0  0  0  0  0  0  0  0  0  0  0
   18.8395   17.4544   20.3046 H   0  0  0  0  0  0  0  0  0  0  0  0
   20.4312   18.2478   21.5855 C   0  0  0  0  0  0  0  0  0  0  0  0
   21.5300   18.2476   21.5967 H   0  0  0  0  0  0  0  0  0  0  0  0
   20.1082   17.6975   22.4763 H   0  0  0  0  0  0  0  0  0  0  0  0
   19.9110   19.7051   21.6223 C   0  0  0  0  0  0  0  0  0  0  0  0
   20.2483   20.2085   20.7056 H   0  0  0  0  0  0  0  0  0  0  0  0
   18.8130   19.7201   21.5885 H   0  0  0  0  0  0  0  0  0  0  0  0
   20.4190   20.5223   22.8392 C   0  0  0  0  0  0  0  0  0  0  0  0
   20.5530   21.5627   22.5122 H   0  0  0  0  0  0  0  0  0  0  0  0
   21.4193   20.1828   23.1398 H   0  0  0  0  0  0  0  0  0  0  0  0
   19.4568   20.5458   24.0576 C   0  0  0  0  0  0  0  0  0  0  0  0
   19.8639   21.2359   24.8097 H   0  0  0  0  0  0  0  0  0  0  0  0
   18.4954   20.9772   23.7465 H   0  0  0  0  0  0  0  0  0  0  0  0
   19.1965   19.1786   24.7333 C   0  0  0  0  0  0  0  0  0  0  0  0
   18.6749   18.5099   24.0376 H   0  0  0  0  0  0  0  0  0  0  0  0
   18.5142   19.3285   25.5805 H   0  0  0  0  0  0  0  0  0  0  0  0
   20.4885   18.5141   25.2445 C   0  0  0  0  0  0  0  0  0  0  0  0
   21.1709   18.3403   24.4087 H   0  0  0  0  0  0  0  0  0  0  0  0
   20.9836   19.1761   25.9601 H   0  0  0  0  0  0  0  0  0  0  0  0
   20.2418   17.1853   25.9290 N   0  3  0  0  0  0  0  0  0  0  0  0
   19.6294   17.2850   26.7452 H   0  0  0  0  0  0  0  0  0  0  0  0
   21.1143   16.7605   26.2615 H   0  0  0  0  0  0  0  0  0  0  0  0
   19.7992   16.5070   25.3008 H   0  0  0  0  0  0  0  0  0  0  0  0
  1  2  1  0  0  0  0
  1  3  1  0  0  0  0
  1  4  1  0  0  0  0
  1  5  1  0  0  0  0
  5  6  1  0  0  0  0
  5  7  1  0  0  0  0
  5  8  1  0  0  0  0
  8  9  1  0  0  0  0
  8 10  1  0  0  0  0
  8 11  1  0  0  0  0
 11 12  1  0  0  0  0
 11 13  1  0  0  0  0
 11 14  1  0  0  0  0
 14 15  1  0  0  0  0
 14 16  1  0  0  0  0
 14 17  1  0  0  0  0
 17 18  1  0  0  0  0
 17 19  1  0  0  0  0
 17 20  1  0  0  0  0
 20 21  1  0  0  0  0
 20 22  1  0  0  0  0
 20 23  1  0  0  0  0
 23 24  1  0  0  0  0
 23 25  1  0  0  0  0
 23 26  1  0  0  0  0
M  END
> <VM2 Rank>
142

> <Conf_Id>
1341

> <Probability>
0.01

> <Sum Probability>
99.84

> <Delta G>
4.014

> <G>
52.276

> <E>
19.189

> <-TS>
33.086

> <U+W>
-2.272

> <U>
52.111

> <W>
-54.383

> <W(PB)>
-56.638

> <W(SA)>
2.255

> <Valence>
5.498

> <Coulomb>
46.317

> <VdW>
0.296

> <VdW6>
-8.627

> <VdW12>
8.923

> <Bond>
0.245

> <Angle>
1.578

> <Pdih>
3.675

> <Idih>
0.000

> <Tether>
0.000

$$$$
VeraChem MOL file


 26 25  0  0  0  0  0  0  0  0999 V2000     
   18.4309   19.3575   21.2860 C   0  0  0  0  0  0  0  0  0  0  0  0
   17.8720   18.4200   21.4029 H   0  0  0  0  0  0  0  0  0  0  0  0
   18.5106   19.8310   22.2700 H   0  0  0  0  0  0  0  0  0  0  0  0
   17.8340   20.0229   20.6489 H   0  0  0  0  0  0  0  0  0  0  0  0
   19.8158   19.1009   20.6476 C   0  0  0  0  0  0  0  0  0  0  0  0
   20.3550   20.0489   20.5132 H   0  0  0  0  0  0  0  0  0  0  0  0
   19.6503   18.7026   19.6368 H   0  0  0  0  0  0  0  0  0  0  0  0
   20.6909   18.0898   21.4332 C   0  0  0  0  0  0  0  0  0  0  0  0
   20.0617   17.3330   21.9197 H   0  0  0  0  0  0  0  0  0  0  0  0
   21.2960   17.5344   20.7033 H   0  0  0  0  0  0  0  0  0  0  0  0
   21.6761   18.7268   22.4506 C   0  0  0  0  0  0  0  0  0  0  0  0
   22.3511   19.4055   21.9112 H   0  0  0  0  0  0  0  0  0  0  0  0
   22.3178   17.9337   22.8586 H   0  0  0  0  0  0  0  0  0  0  0  0
   21.0355   19.4994   23.6302 C   0  0  0  0  0  0  0  0  0  0  0  0
   21.8428   19.9256   24.2418 H   0  0  0  0  0  0  0  0  0  0  0  0
   20.4662   20.3574   23.2512 H   0  0  0  0  0  0  0  0  0  0  0  0
   20.1423   18.6169   24.5337 C   0  0  0  0  0  0  0  0  0  0  0  0
   20.7254   17.7652   24.9083 H   0  0  0  0  0  0  0  0  0  0  0  0
   19.3062   18.2045   23.9559 H   0  0  0  0  0  0  0  0  0  0  0  0
   19.5846   19.4181   25.7230 C   0  0  0  0  0  0  0  0  0  0  0  0
   20.4107   19.8153   26.3190 H   0  0  0  0  0  0  0  0  0  0  0  0
   18.9909   20.2589   25.3542 H   0  0  0  0  0  0  0  0  0  0  0  0
   18.7048   18.5895   26.6367 N   0  3  0  0  0  0  0  0  0  0  0  0
   19.2132   17.7953   27.0391 H   0  0  0  0  0  0  0  0  0  0  0  0
   17.8916   18.2084   26.1422 H   0  0  0  0  0  0  0  0  0  0  0  0
   18.3447   19.1422   27.4223 H   0  0  0  0  0  0  0  0  0  0  0  0
  1  2  1  0  0  0  0
  1  3  1  0  0  0  0
  1  4  1  0  0  0  0
  1  5  1  0  0  0  0
  5  6  1  0  0  0  0
  5  7  1  0  0  0  0
  5  8  1  0  0  0  0
  8  9  1  0  0  0  0
  8 10  1  0  0  0  0
  8 11  1  0  0  0  0
 11 12  1  0  0  0  0
 11 13  1  0  0  0  0
 11 14  1  0  0  0  0
 14 15  1  0  0  0  0
 14 16  1  0  0  0  0
 14 17  1  0  0  0  0
 17 18  1  0  0  0  0
 17 19  1  0  0  0  0
 17 20  1  0  0  0  0
 20 21  1  0  0  0  0
 20 22  1  0  0  0  0
 20 23  1  0  0  0  0
 23 24  1  0  0  0  0
 23 25  1  0  0  0  0
 23 26  1  0  0  0  0
M  END
> <VM2 Rank>
143

> <Conf_Id>
447

> <Probability>
0.01

> <Sum Probability>
99.85

> <Delta G>
4.048

> <G>
52.309

> <E>
19.137

> <-TS>
33.172

> <U+W>
-2.324

> <U>
51.692

> <W>
-54.016

> <W(PB)>
-56.249

> <W(SA)>
2.233

> <Valence>
5.738

> <Coulomb>
45.542

> <VdW>
0.411

> <VdW6>
-8.566

> <VdW12>
8.977

> <Bond>
0.261

> <Angle>
1.836

> <Pdih>
3.641

> <Idih>
0.000

> <Tether>
0.000

$$$$
VeraChem MOL file


 26 25  0  0  0  0  0  0  0  0999 V2000     
   19.6949   19.7054   19.8156 C   0  0  0  0  0  0  0  0  0  0  0  0
   19.4387   19.5059   18.7671 H   0  0  0  0  0  0  0  0  0  0  0  0
   19.1196   20.5822   20.1401 H   0  0  0  0  0  0  0  0  0  0  0  0
   20.7608   19.9613   19.8500 H   0  0  0  0  0  0  0  0  0  0  0  0
   19.3739   18.4740   20.6933 C   0  0  0  0  0  0  0  0  0  0  0  0
   19.9854   17.6192   20.3721 H   0  0  0  0  0  0  0  0  0  0  0  0
   18.3277   18.1846   20.5217 H   0  0  0  0  0  0  0  0  0  0  0  0
   19.5750   18.7239   22.2078 C   0  0  0  0  0  0  0  0  0  0  0  0
   18.9811   19.5943   22.5187 H   0  0  0  0  0  0  0  0  0  0  0  0
   19.1721   17.8558   22.7440 H   0  0  0  0  0  0  0  0  0  0  0  0
   21.0575   18.9233   22.6096 C   0  0  0  0  0  0  0  0  0  0  0  0
   21.5012   19.7143   21.9922 H   0  0  0  0  0  0  0  0  0  0  0  0
   21.6216   18.0080   22.3838 H   0  0  0  0  0  0  0  0  0  0  0  0
   21.2759   19.3110   24.0953 C   0  0  0  0  0  0  0  0  0  0  0  0
   22.3544   19.4653   24.2384 H   0  0  0  0  0  0  0  0  0  0  0  0
   20.8118   20.2845   24.2997 H   0  0  0  0  0  0  0  0  0  0  0  0
   20.8051   18.2520   25.1279 C   0  0  0  0  0  0  0  0  0  0  0  0
   21.4108   18.3491   26.0387 H   0  0  0  0  0  0  0  0  0  0  0  0
   21.0048   17.2440   24.7408 H   0  0  0  0  0  0  0  0  0  0  0  0
   19.3185   18.3637   25.5279 C   0  0  0  0  0  0  0  0  0  0  0  0
   18.6808   18.3059   24.6442 H   0  0  0  0  0  0  0  0  0  0  0  0
   19.0601   17.5300   26.1864 H   0  0  0  0  0  0  0  0  0  0  0  0
   18.9804   19.6457   26.2634 N   0  3  0  0  0  0  0  0  0  0  0  0
   17.9908   19.6816   26.5311 H   0  0  0  0  0  0  0  0  0  0  0  0
   19.1665   20.4736   25.6893 H   0  0  0  0  0  0  0  0  0  0  0  0
   19.5270   19.7454   27.1249 H   0  0  0  0  0  0  0  0  0  0  0  0
  1  2  1  0  0  0  0
  1  3  1  0  0  0  0
  1  4  1  0  0  0  0
  1  5  1  0  0  0  0
  5  6  1  0  0  0  0
  5  7  1  0  0  0  0
  5  8  1  0  0  0  0
  8  9  1  0  0  0  0
  8 10  1  0  0  0  0
  8 11  1  0  0  0  0
 11 12  1  0  0  0  0
 11 13  1  0  0  0  0
 11 14  1  0  0  0  0
 14 15  1  0  0  0  0
 14 16  1  0  0  0  0
 14 17  1  0  0  0  0
 17 18  1  0  0  0  0
 17 19  1  0  0  0  0
 17 20  1  0  0  0  0
 20 21  1  0  0  0  0
 20 22  1  0  0  0  0
 20 23  1  0  0  0  0
 23 24  1  0  0  0  0
 23 25  1  0  0  0  0
 23 26  1  0  0  0  0
M  END
> <VM2 Rank>
144

> <Conf_Id>
514

> <Probability>
0.01

> <Sum Probability>
99.86

> <Delta G>
4.090

> <G>
52.352

> <E>
19.546

> <-TS>
32.806

> <U+W>
-1.916

> <U>
52.150

> <W>
-54.067

> <W(PB)>
-56.339

> <W(SA)>
2.273

> <Valence>
5.368

> <Coulomb>
45.965

> <VdW>
0.817

> <VdW6>
-8.546

> <VdW12>
9.363

> <Bond>
0.273

> <Angle>
1.632

> <Pdih>
3.463

> <Idih>
0.000

> <Tether>
0.000

$$$$
VeraChem MOL file


 26 25  0  0  0  0  0  0  0  0999 V2000     
   18.8860   19.7390   20.5905 C   0  0  0  0  0  0  0  0  0  0  0  0
   18.1022   19.4175   21.2886 H   0  0  0  0  0  0  0  0  0  0  0  0
   19.3892   20.6187   21.0100 H   0  0  0  0  0  0  0  0  0  0  0  0
   18.3981   20.0540   19.6591 H   0  0  0  0  0  0  0  0  0  0  0  0
   19.8891   18.5979   20.3148 C   0  0  0  0  0  0  0  0  0  0  0  0
   20.6969   18.9700   19.6693 H   0  0  0  0  0  0  0  0  0  0  0  0
   19.3789   17.8120   19.7406 H   0  0  0  0  0  0  0  0  0  0  0  0
   20.4944   17.9591   21.5908 C   0  0  0  0  0  0  0  0  0  0  0  0
   19.6989   17.4940   22.1857 H   0  0  0  0  0  0  0  0  0  0  0  0
   21.1419   17.1319   21.2689 H   0  0  0  0  0  0  0  0  0  0  0  0
   21.3467   18.9263   22.4575 C   0  0  0  0  0  0  0  0  0  0  0  0
   21.8008   19.6896   21.8109 H   0  0  0  0  0  0  0  0  0  0  0  0
   22.1899   18.3677   22.8869 H   0  0  0  0  0  0  0  0  0  0  0  0
   20.5816   19.6186   23.6158 C   0  0  0  0  0  0  0  0  0  0  0  0
   21.2177   20.4178   24.0209 H   0  0  0  0  0  0  0  0  0  0  0  0
   19.6767   20.1107   23.2401 H   0  0  0  0  0  0  0  0  0  0  0  0
   20.2078   18.6547   24.7671 C   0  0  0  0  0  0  0  0  0  0  0  0
   21.1122   18.1555   25.1393 H   0  0  0  0  0  0  0  0  0  0  0  0
   19.5332   17.8696   24.4044 H   0  0  0  0  0  0  0  0  0  0  0  0
   19.5269   19.4049   25.9254 C   0  0  0  0  0  0  0  0  0  0  0  0
   20.1990   20.1771   26.3095 H   0  0  0  0  0  0  0  0  0  0  0  0
   18.6159   19.8902   25.5645 H   0  0  0  0  0  0  0  0  0  0  0  0
   19.1485   18.4986   27.0790 N   0  3  0  0  0  0  0  0  0  0  0  0
   18.4939   17.7645   26.7896 H   0  0  0  0  0  0  0  0  0  0  0  0
   18.6970   19.0184   27.8395 H   0  0  0  0  0  0  0  0  0  0  0  0
   19.9672   18.0313   27.4822 H   0  0  0  0  0  0  0  0  0  0  0  0
  1  2  1  0  0  0  0
  1  3  1  0  0  0  0
  1  4  1  0  0  0  0
  1  5  1  0  0  0  0
  5  6  1  0  0  0  0
  5  7  1  0  0  0  0
  5  8  1  0  0  0  0
  8  9  1  0  0  0  0
  8 10  1  0  0  0  0
  8 11  1  0  0  0  0
 11 12  1  0  0  0  0
 11 13  1  0  0  0  0
 11 14  1  0  0  0  0
 14 15  1  0  0  0  0
 14 16  1  0  0  0  0
 14 17  1  0  0  0  0
 17 18  1  0  0  0  0
 17 19  1  0  0  0  0
 17 20  1  0  0  0  0
 20 21  1  0  0  0  0
 20 22  1  0  0  0  0
 20 23  1  0  0  0  0
 23 24  1  0  0  0  0
 23 25  1  0  0  0  0
 23 26  1  0  0  0  0
M  END
> <VM2 Rank>
145

> <Conf_Id>
569

> <Probability>
0.01

> <Sum Probability>
99.87

> <Delta G>
4.101

> <G>
52.362

> <E>
19.627

> <-TS>
32.735

> <U+W>
-1.835

> <U>
51.747

> <W>
-53.581

> <W(PB)>
-55.842

> <W(SA)>
2.260

> <Valence>
5.867

> <Coulomb>
45.077

> <VdW>
0.803

> <VdW6>
-7.888

> <VdW12>
8.691

> <Bond>
0.267

> <Angle>
1.476

> <Pdih>
4.125

> <Idih>
0.000

> <Tether>
0.000

$$$$
VeraChem MOL file


 26 25  0  0  0  0  0  0  0  0999 V2000     
   20.0199   19.9476   20.2947 C   0  0  0  0  0  0  0  0  0  0  0  0
   20.2591   19.2593   19.4737 H   0  0  0  0  0  0  0  0  0  0  0  0
   18.9447   19.8765   20.5010 H   0  0  0  0  0  0  0  0  0  0  0  0
   20.2233   20.9687   19.9472 H   0  0  0  0  0  0  0  0  0  0  0  0
   20.8593   19.6259   21.5516 C   0  0  0  0  0  0  0  0  0  0  0  0
   20.5907   20.3190   22.3589 H   0  0  0  0  0  0  0  0  0  0  0  0
   21.9180   19.8182   21.3284 H   0  0  0  0  0  0  0  0  0  0  0  0
   20.7134   18.1575   22.0267 C   0  0  0  0  0  0  0  0  0  0  0  0
   21.0681   17.4945   21.2257 H   0  0  0  0  0  0  0  0  0  0  0  0
   21.3904   17.9756   22.8705 H   0  0  0  0  0  0  0  0  0  0  0  0
   19.2739   17.7283   22.4145 C   0  0  0  0  0  0  0  0  0  0  0  0
   19.2961   16.6771   22.7330 H   0  0  0  0  0  0  0  0  0  0  0  0
   18.6447   17.7441   21.5147 H   0  0  0  0  0  0  0  0  0  0  0  0
   18.5784   18.5708   23.5179 C   0  0  0  0  0  0  0  0  0  0  0  0
   18.4843   19.6193   23.2057 H   0  0  0  0  0  0  0  0  0  0  0  0
   17.5479   18.2006   23.6086 H   0  0  0  0  0  0  0  0  0  0  0  0
   19.2360   18.4826   24.9187 C   0  0  0  0  0  0  0  0  0  0  0  0
   19.5775   17.4567   25.1102 H   0  0  0  0  0  0  0  0  0  0  0  0
   18.4709   18.7004   25.6757 H   0  0  0  0  0  0  0  0  0  0  0  0
   20.3971   19.4756   25.1150 C   0  0  0  0  0  0  0  0  0  0  0  0
   21.1923   19.2746   24.3952 H   0  0  0  0  0  0  0  0  0  0  0  0
   20.0380   20.4954   24.9523 H   0  0  0  0  0  0  0  0  0  0  0  0
   21.0029   19.4108   26.5020 N   0  3  0  0  0  0  0  0  0  0  0  0
   21.7712   20.0811   26.6144 H   0  0  0  0  0  0  0  0  0  0  0  0
   21.3841   18.4819   26.7093 H   0  0  0  0  0  0  0  0  0  0  0  0
   20.3131   19.6230   27.2302 H   0  0  0  0  0  0  0  0  0  0  0  0
  1  2  1  0  0  0  0
  1  3  1  0  0  0  0
  1  4  1  0  0  0  0
  1  5  1  0  0  0  0
  5  6  1  0  0  0  0
  5  7  1  0  0  0  0
  5  8  1  0  0  0  0
  8  9  1  0  0  0  0
  8 10  1  0  0  0  0
  8 11  1  0  0  0  0
 11 12  1  0  0  0  0
 11 13  1  0  0  0  0
 11 14  1  0  0  0  0
 14 15  1  0  0  0  0
 14 16  1  0  0  0  0
 14 17  1  0  0  0  0
 17 18  1  0  0  0  0
 17 19  1  0  0  0  0
 17 20  1  0  0  0  0
 20 21  1  0  0  0  0
 20 22  1  0  0  0  0
 20 23  1  0  0  0  0
 23 24  1  0  0  0  0
 23 25  1  0  0  0  0
 23 26  1  0  0  0  0
M  END
> <VM2 Rank>
146

> <Conf_Id>
1315

> <Probability>
0.01

> <Sum Probability>
99.88

> <Delta G>
4.112

> <G>
52.374

> <E>
18.963

> <-TS>
33.411

> <U+W>
-2.499

> <U>
51.820

> <W>
-54.320

> <W(PB)>
-56.541

> <W(SA)>
2.221

> <Valence>
5.497

> <Coulomb>
46.010

> <VdW>
0.313

> <VdW6>
-9.491

> <VdW12>
9.804

> <Bond>
0.285

> <Angle>
2.062

> <Pdih>
3.150

> <Idih>
0.000

> <Tether>
0.000

$$$$
VeraChem MOL file


 26 25  0  0  0  0  0  0  0  0999 V2000     
   20.8629   17.6273   20.9624 C   0  0  0  0  0  0  0  0  0  0  0  0
   20.7705   16.5389   20.8543 H   0  0  0  0  0  0  0  0  0  0  0  0
   21.3848   18.0093   20.0754 H   0  0  0  0  0  0  0  0  0  0  0  0
   21.4937   17.8212   21.8382 H   0  0  0  0  0  0  0  0  0  0  0  0
   19.4680   18.2779   21.1056 C   0  0  0  0  0  0  0  0  0  0  0  0
   18.9465   17.8742   21.9826 H   0  0  0  0  0  0  0  0  0  0  0  0
   18.8573   17.9884   20.2391 H   0  0  0  0  0  0  0  0  0  0  0  0
   19.5165   19.8238   21.1755 C   0  0  0  0  0  0  0  0  0  0  0  0
   19.9610   20.2013   20.2443 H   0  0  0  0  0  0  0  0  0  0  0  0
   18.4876   20.2089   21.1899 H   0  0  0  0  0  0  0  0  0  0  0  0
   20.2955   20.4294   22.3744 C   0  0  0  0  0  0  0  0  0  0  0  0
   20.3025   21.5195   22.2368 H   0  0  0  0  0  0  0  0  0  0  0  0
   21.3510   20.1286   22.3448 H   0  0  0  0  0  0  0  0  0  0  0  0
   19.6817   20.1334   23.7683 C   0  0  0  0  0  0  0  0  0  0  0  0
   19.8446   21.0111   24.4093 H   0  0  0  0  0  0  0  0  0  0  0  0
   18.5922   20.0180   23.6848 H   0  0  0  0  0  0  0  0  0  0  0  0
   20.2998   18.9043   24.4763 C   0  0  0  0  0  0  0  0  0  0  0  0
   21.3846   19.0434   24.5743 H   0  0  0  0  0  0  0  0  0  0  0  0
   20.1469   17.9979   23.8809 H   0  0  0  0  0  0  0  0  0  0  0  0
   19.6864   18.6964   25.8721 C   0  0  0  0  0  0  0  0  0  0  0  0
   19.8546   19.5864   26.4845 H   0  0  0  0  0  0  0  0  0  0  0  0
   18.6080   18.5405   25.7806 H   0  0  0  0  0  0  0  0  0  0  0  0
   20.2702   17.5066   26.6064 N   0  3  0  0  0  0  0  0  0  0  0  0
   20.1206   16.6306   26.0951 H   0  0  0  0  0  0  0  0  0  0  0  0
   19.8479   17.3869   27.5336 H   0  0  0  0  0  0  0  0  0  0  0  0
   21.2808   17.6043   26.7494 H   0  0  0  0  0  0  0  0  0  0  0  0
  1  2  1  0  0  0  0
  1  3  1  0  0  0  0
  1  4  1  0  0  0  0
  1  5  1  0  0  0  0
  5  6  1  0  0  0  0
  5  7  1  0  0  0  0
  5  8  1  0  0  0  0
  8  9  1  0  0  0  0
  8 10  1  0  0  0  0
  8 11  1  0  0  0  0
 11 12  1  0  0  0  0
 11 13  1  0  0  0  0
 11 14  1  0  0  0  0
 14 15  1  0  0  0  0
 14 16  1  0  0  0  0
 14 17  1  0  0  0  0
 17 18  1  0  0  0  0
 17 19  1  0  0  0  0
 17 20  1  0  0  0  0
 20 21  1  0  0  0  0
 20 22  1  0  0  0  0
 20 23  1  0  0  0  0
 23 24  1  0  0  0  0
 23 25  1  0  0  0  0
 23 26  1  0  0  0  0
M  END
> <VM2 Rank>
147

> <Conf_Id>
1085

> <Probability>
0.01

> <Sum Probability>
99.88

> <Delta G>
4.125

> <G>
52.386

> <E>
19.225

> <-TS>
33.161

> <U+W>
-2.237

> <U>
51.714

> <W>
-53.951

> <W(PB)>
-56.213

> <W(SA)>
2.262

> <Valence>
5.770

> <Coulomb>
45.469

> <VdW>
0.475

> <VdW6>
-8.435

> <VdW12>
8.910

> <Bond>
0.260

> <Angle>
1.769

> <Pdih>
3.741

> <Idih>
0.000

> <Tether>
0.000

$$$$
VeraChem MOL file


 26 25  0  0  0  0  0  0  0  0999 V2000     
   19.2064   19.4111   20.2675 C   0  0  0  0  0  0  0  0  0  0  0  0
   19.6844   20.3643   20.5257 H   0  0  0  0  0  0  0  0  0  0  0  0
   19.7828   18.9452   19.4578 H   0  0  0  0  0  0  0  0  0  0  0  0
   18.2048   19.6376   19.8799 H   0  0  0  0  0  0  0  0  0  0  0  0
   19.1138   18.4747   21.4932 C   0  0  0  0  0  0  0  0  0  0  0  0
   18.5318   17.5850   21.2153 H   0  0  0  0  0  0  0  0  0  0  0  0
   18.5451   18.9698   22.2906 H   0  0  0  0  0  0  0  0  0  0  0  0
   20.4977   18.0152   22.0195 C   0  0  0  0  0  0  0  0  0  0  0  0
   20.3597   17.2958   22.8360 H   0  0  0  0  0  0  0  0  0  0  0  0
   21.0047   17.4527   21.2235 H   0  0  0  0  0  0  0  0  0  0  0  0
   21.4392   19.1563   22.4869 C   0  0  0  0  0  0  0  0  0  0  0  0
   21.7137   19.7681   21.6173 H   0  0  0  0  0  0  0  0  0  0  0  0
   22.3811   18.7117   22.8362 H   0  0  0  0  0  0  0  0  0  0  0  0
   20.8871   20.0934   23.5951 C   0  0  0  0  0  0  0  0  0  0  0  0
   21.6275   20.8912   23.7449 H   0  0  0  0  0  0  0  0  0  0  0  0
   19.9755   20.6028   23.2554 H   0  0  0  0  0  0  0  0  0  0  0  0
   20.6447   19.4117   24.9657 C   0  0  0  0  0  0  0  0  0  0  0  0
   20.7098   20.1771   25.7505 H   0  0  0  0  0  0  0  0  0  0  0  0
   21.4439   18.6878   25.1726 H   0  0  0  0  0  0  0  0  0  0  0  0
   19.2675   18.7306   25.0772 C   0  0  0  0  0  0  0  0  0  0  0  0
   18.4794   19.4673   24.9001 H   0  0  0  0  0  0  0  0  0  0  0  0
   19.1735   17.9429   24.3277 H   0  0  0  0  0  0  0  0  0  0  0  0
   19.0246   18.1061   26.4359 N   0  3  0  0  0  0  0  0  0  0  0  0
   19.0665   18.8010   27.1885 H   0  0  0  0  0  0  0  0  0  0  0  0
   19.7185   17.3835   26.6538 H   0  0  0  0  0  0  0  0  0  0  0  0
   18.1020   17.6611   26.4917 H   0  0  0  0  0  0  0  0  0  0  0  0
  1  2  1  0  0  0  0
  1  3  1  0  0  0  0
  1  4  1  0  0  0  0
  1  5  1  0  0  0  0
  5  6  1  0  0  0  0
  5  7  1  0  0  0  0
  5  8  1  0  0  0  0
  8  9  1  0  0  0  0
  8 10  1  0  0  0  0
  8 11  1  0  0  0  0
 11 12  1  0  0  0  0
 11 13  1  0  0  0  0
 11 14  1  0  0  0  0
 14 15  1  0  0  0  0
 14 16  1  0  0  0  0
 14 17  1  0  0  0  0
 17 18  1  0  0  0  0
 17 19  1  0  0  0  0
 17 20  1  0  0  0  0
 20 21  1  0  0  0  0
 20 22  1  0  0  0  0
 20 23  1  0  0  0  0
 23 24  1  0  0  0  0
 23 25  1  0  0  0  0
 23 26  1  0  0  0  0
M  END
> <VM2 Rank>
148

> <Conf_Id>
159

> <Probability>
0.01

> <Sum Probability>
99.89

> <Delta G>
4.138

> <G>
52.399

> <E>
18.988

> <-TS>
33.411

> <U+W>
-2.473

> <U>
51.820

> <W>
-54.294

> <W(PB)>
-56.510

> <W(SA)>
2.216

> <Valence>
5.497

> <Coulomb>
46.010

> <VdW>
0.313

> <VdW6>
-9.491

> <VdW12>
9.804

> <Bond>
0.285

> <Angle>
2.062

> <Pdih>
3.149

> <Idih>
0.000

> <Tether>
0.000

$$$$
VeraChem MOL file


 26 25  0  0  0  0  0  0  0  0999 V2000     
   21.2095   18.9526   20.2678 C   0  0  0  0  0  0  0  0  0  0  0  0
   21.7996   19.2711   21.1361 H   0  0  0  0  0  0  0  0  0  0  0  0
   21.4396   17.8992   20.0619 H   0  0  0  0  0  0  0  0  0  0  0  0
   21.5441   19.5445   19.4061 H   0  0  0  0  0  0  0  0  0  0  0  0
   19.6962   19.1539   20.5080 C   0  0  0  0  0  0  0  0  0  0  0  0
   19.1589   18.9410   19.5733 H   0  0  0  0  0  0  0  0  0  0  0  0
   19.4939   20.2091   20.7341 H   0  0  0  0  0  0  0  0  0  0  0  0
   19.1209   18.2440   21.6238 C   0  0  0  0  0  0  0  0  0  0  0  0
   18.0443   18.4405   21.7208 H   0  0  0  0  0  0  0  0  0  0  0  0
   19.2065   17.1970   21.3019 H   0  0  0  0  0  0  0  0  0  0  0  0
   19.7879   18.3879   23.0167 C   0  0  0  0  0  0  0  0  0  0  0  0
   20.8474   18.1066   22.9551 H   0  0  0  0  0  0  0  0  0  0  0  0
   19.3109   17.6605   23.6841 H   0  0  0  0  0  0  0  0  0  0  0  0
   19.6516   19.8054   23.6270 C   0  0  0  0  0  0  0  0  0  0  0  0
   20.0558   20.5452   22.9245 H   0  0  0  0  0  0  0  0  0  0  0  0
   18.5877   20.0492   23.7525 H   0  0  0  0  0  0  0  0  0  0  0  0
   20.3873   19.9942   24.9784 C   0  0  0  0  0  0  0  0  0  0  0  0
   20.2889   21.0485   25.2693 H   0  0  0  0  0  0  0  0  0  0  0  0
   21.4638   19.8153   24.8559 H   0  0  0  0  0  0  0  0  0  0  0  0
   19.8363   19.1357   26.1359 C   0  0  0  0  0  0  0  0  0  0  0  0
   20.0958   19.6112   27.0857 H   0  0  0  0  0  0  0  0  0  0  0  0
   18.7464   19.0802   26.0713 H   0  0  0  0  0  0  0  0  0  0  0  0
   20.3912   17.7252   26.1834 N   0  3  0  0  0  0  0  0  0  0  0  0
   21.4096   17.7223   26.3010 H   0  0  0  0  0  0  0  0  0  0  0  0
   20.1843   17.2054   25.3261 H   0  0  0  0  0  0  0  0  0  0  0  0
   19.9991   17.1888   26.9650 H   0  0  0  0  0  0  0  0  0  0  0  0
  1  2  1  0  0  0  0
  1  3  1  0  0  0  0
  1  4  1  0  0  0  0
  1  5  1  0  0  0  0
  5  6  1  0  0  0  0
  5  7  1  0  0  0  0
  5  8  1  0  0  0  0
  8  9  1  0  0  0  0
  8 10  1  0  0  0  0
  8 11  1  0  0  0  0
 11 12  1  0  0  0  0
 11 13  1  0  0  0  0
 11 14  1  0  0  0  0
 14 15  1  0  0  0  0
 14 16  1  0  0  0  0
 14 17  1  0  0  0  0
 17 18  1  0  0  0  0
 17 19  1  0  0  0  0
 17 20  1  0  0  0  0
 20 21  1  0  0  0  0
 20 22  1  0  0  0  0
 20 23  1  0  0  0  0
 23 24  1  0  0  0  0
 23 25  1  0  0  0  0
 23 26  1  0  0  0  0
M  END
> <VM2 Rank>
149

> <Conf_Id>
525

> <Probability>
0.01

> <Sum Probability>
99.90

> <Delta G>
4.163

> <G>
52.424

> <E>
19.578

> <-TS>
32.846

> <U+W>
-1.883

> <U>
52.060

> <W>
-53.943

> <W(PB)>
-56.191

> <W(SA)>
2.247

> <Valence>
4.855

> <Coulomb>
46.488

> <VdW>
0.717

> <VdW6>
-8.768

> <VdW12>
9.485

> <Bond>
0.277

> <Angle>
1.730

> <Pdih>
2.847

> <Idih>
0.000

> <Tether>
0.000

$$$$
VeraChem MOL file


 26 25  0  0  0  0  0  0  0  0999 V2000     
   19.6519   17.9287   20.2152 C   0  0  0  0  0  0  0  0  0  0  0  0
   19.0168   17.8832   19.3210 H   0  0  0  0  0  0  0  0  0  0  0  0
   20.5370   17.3062   20.0311 H   0  0  0  0  0  0  0  0  0  0  0  0
   19.0860   17.4867   21.0447 H   0  0  0  0  0  0  0  0  0  0  0  0
   20.0537   19.3894   20.5199 C   0  0  0  0  0  0  0  0  0  0  0  0
   19.1550   19.9866   20.7230 H   0  0  0  0  0  0  0  0  0  0  0  0
   20.5049   19.8270   19.6185 H   0  0  0  0  0  0  0  0  0  0  0  0
   21.0638   19.5218   21.6887 C   0  0  0  0  0  0  0  0  0  0  0  0
   22.0056   19.0381   21.3953 H   0  0  0  0  0  0  0  0  0  0  0  0
   21.3043   20.5845   21.8302 H   0  0  0  0  0  0  0  0  0  0  0  0
   20.6033   18.9237   23.0438 C   0  0  0  0  0  0  0  0  0  0  0  0
   21.4280   19.0524   23.7548 H   0  0  0  0  0  0  0  0  0  0  0  0
   20.4460   17.8419   22.9412 H   0  0  0  0  0  0  0  0  0  0  0  0
   19.3280   19.5917   23.6161 C   0  0  0  0  0  0  0  0  0  0  0  0
   19.5182   20.6608   23.7834 H   0  0  0  0  0  0  0  0  0  0  0  0
   18.5223   19.5353   22.8732 H   0  0  0  0  0  0  0  0  0  0  0  0
   18.8015   18.9501   24.9254 C   0  0  0  0  0  0  0  0  0  0  0  0
   18.5471   17.8949   24.7587 H   0  0  0  0  0  0  0  0  0  0  0  0
   17.8590   19.4488   25.1877 H   0  0  0  0  0  0  0  0  0  0  0  0
   19.7525   19.0811   26.1332 C   0  0  0  0  0  0  0  0  0  0  0  0
   20.2359   20.0616   26.1211 H   0  0  0  0  0  0  0  0  0  0  0  0
   19.1694   19.0021   27.0548 H   0  0  0  0  0  0  0  0  0  0  0  0
   20.8264   18.0124   26.1986 N   0  3  0  0  0  0  0  0  0  0  0  0
   21.4251   18.0227   25.3684 H   0  0  0  0  0  0  0  0  0  0  0  0
   20.4223   17.0728   26.2689 H   0  0  0  0  0  0  0  0  0  0  0  0
   21.4367   18.1364   27.0138 H   0  0  0  0  0  0  0  0  0  0  0  0
  1  2  1  0  0  0  0
  1  3  1  0  0  0  0
  1  4  1  0  0  0  0
  1  5  1  0  0  0  0
  5  6  1  0  0  0  0
  5  7  1  0  0  0  0
  5  8  1  0  0  0  0
  8  9  1  0  0  0  0
  8 10  1  0  0  0  0
  8 11  1  0  0  0  0
 11 12  1  0  0  0  0
 11 13  1  0  0  0  0
 11 14  1  0  0  0  0
 14 15  1  0  0  0  0
 14 16  1  0  0  0  0
 14 17  1  0  0  0  0
 17 18  1  0  0  0  0
 17 19  1  0  0  0  0
 17 20  1  0  0  0  0
 20 21  1  0  0  0  0
 20 22  1  0  0  0  0
 20 23  1  0  0  0  0
 23 24  1  0  0  0  0
 23 25  1  0  0  0  0
 23 26  1  0  0  0  0
M  END
> <VM2 Rank>
150

> <Conf_Id>
765

> <Probability>
0.01

> <Sum Probability>
99.91

> <Delta G>
4.172

> <G>
52.433

> <E>
19.589

> <-TS>
32.844

> <U+W>
-1.873

> <U>
52.059

> <W>
-53.932

> <W(PB)>
-56.175

> <W(SA)>
2.243

> <Valence>
4.855

> <Coulomb>
46.487

> <VdW>
0.717

> <VdW6>
-8.767

> <VdW12>
9.484

> <Bond>
0.277

> <Angle>
1.731

> <Pdih>
2.847

> <Idih>
0.000

> <Tether>
0.000

$$$$
VeraChem MOL file


 26 25  0  0  0  0  0  0  0  0999 V2000     
   18.9561   18.6670   20.0125 C   0  0  0  0  0  0  0  0  0  0  0  0
   19.6941   18.4244   19.2369 H   0  0  0  0  0  0  0  0  0  0  0  0
   18.0650   18.0513   19.8337 H   0  0  0  0  0  0  0  0  0  0  0  0
   18.6679   19.7196   19.8931 H   0  0  0  0  0  0  0  0  0  0  0  0
   19.5256   18.4050   21.4228 C   0  0  0  0  0  0  0  0  0  0  0  0
   19.7742   17.3390   21.5200 H   0  0  0  0  0  0  0  0  0  0  0  0
   18.7462   18.6150   22.1638 H   0  0  0  0  0  0  0  0  0  0  0  0
   20.7863   19.2604   21.6952 C   0  0  0  0  0  0  0  0  0  0  0  0
   21.5243   19.0339   20.9132 H   0  0  0  0  0  0  0  0  0  0  0  0
   20.5530   20.3287   21.5898 H   0  0  0  0  0  0  0  0  0  0  0  0
   21.4450   18.9910   23.0737 C   0  0  0  0  0  0  0  0  0  0  0  0
   22.5295   19.1236   22.9569 H   0  0  0  0  0  0  0  0  0  0  0  0
   21.3117   17.9406   23.3646 H   0  0  0  0  0  0  0  0  0  0  0  0
   20.9890   19.9421   24.2132 C   0  0  0  0  0  0  0  0  0  0  0  0
   21.6161   19.7563   25.0954 H   0  0  0  0  0  0  0  0  0  0  0  0
   21.1993   20.9793   23.9183 H   0  0  0  0  0  0  0  0  0  0  0  0
   19.4991   19.8336   24.6247 C   0  0  0  0  0  0  0  0  0  0  0  0
   18.8630   20.1786   23.8004 H   0  0  0  0  0  0  0  0  0  0  0  0
   19.3056   20.5239   25.4564 H   0  0  0  0  0  0  0  0  0  0  0  0
   19.0687   18.4131   25.0434 C   0  0  0  0  0  0  0  0  0  0  0  0
   18.0012   18.4115   25.2803 H   0  0  0  0  0  0  0  0  0  0  0  0
   19.2353   17.7178   24.2169 H   0  0  0  0  0  0  0  0  0  0  0  0
   19.8114   17.8869   26.2554 N   0  3  0  0  0  0  0  0  0  0  0  0
   19.6696   18.4836   27.0767 H   0  0  0  0  0  0  0  0  0  0  0  0
   20.8209   17.8381   26.0869 H   0  0  0  0  0  0  0  0  0  0  0  0
   19.5019   16.9435   26.5128 H   0  0  0  0  0  0  0  0  0  0  0  0
  1  2  1  0  0  0  0
  1  3  1  0  0  0  0
  1  4  1  0  0  0  0
  1  5  1  0  0  0  0
  5  6  1  0  0  0  0
  5  7  1  0  0  0  0
  5  8  1  0  0  0  0
  8  9  1  0  0  0  0
  8 10  1  0  0  0  0
  8 11  1  0  0  0  0
 11 12  1  0  0  0  0
 11 13  1  0  0  0  0
 11 14  1  0  0  0  0
 14 15  1  0  0  0  0
 14 16  1  0  0  0  0
 14 17  1  0  0  0  0
 17 18  1  0  0  0  0
 17 19  1  0  0  0  0
 17 20  1  0  0  0  0
 20 21  1  0  0  0  0
 20 22  1  0  0  0  0
 20 23  1  0  0  0  0
 23 24  1  0  0  0  0
 23 25  1  0  0  0  0
 23 26  1  0  0  0  0
M  END
> <VM2 Rank>
151

> <Conf_Id>
257

> <Probability>
0.01

> <Sum Probability>
99.91

> <Delta G>
4.278

> <G>
52.540

> <E>
19.310

> <-TS>
33.230

> <U+W>
-2.152

> <U>
52.069

> <W>
-54.220

> <W(PB)>
-56.446

> <W(SA)>
2.225

> <Valence>
5.586

> <Coulomb>
46.106

> <VdW>
0.377

> <VdW6>
-9.204

> <VdW12>
9.580

> <Bond>
0.269

> <Angle>
1.680

> <Pdih>
3.637

> <Idih>
0.000

> <Tether>
0.000

$$$$
VeraChem MOL file


 26 25  0  0  0  0  0  0  0  0999 V2000     
   19.6430   20.0594   20.2805 C   0  0  0  0  0  0  0  0  0  0  0  0
   18.6886   19.5252   20.3660 H   0  0  0  0  0  0  0  0  0  0  0  0
   19.5745   20.9830   20.8698 H   0  0  0  0  0  0  0  0  0  0  0  0
   19.7697   20.3418   19.2273 H   0  0  0  0  0  0  0  0  0  0  0  0
   20.8272   19.1855   20.7523 C   0  0  0  0  0  0  0  0  0  0  0  0
   21.7658   19.7153   20.5375 H   0  0  0  0  0  0  0  0  0  0  0  0
   20.8579   18.2564   20.1662 H   0  0  0  0  0  0  0  0  0  0  0  0
   20.7792   18.8521   22.2629 C   0  0  0  0  0  0  0  0  0  0  0  0
   21.7067   18.3278   22.5302 H   0  0  0  0  0  0  0  0  0  0  0  0
   20.7774   19.7892   22.8302 H   0  0  0  0  0  0  0  0  0  0  0  0
   19.5667   17.9687   22.6555 C   0  0  0  0  0  0  0  0  0  0  0  0
   19.5587   17.0909   21.9948 H   0  0  0  0  0  0  0  0  0  0  0  0
   18.6238   18.4987   22.4679 H   0  0  0  0  0  0  0  0  0  0  0  0
   19.5981   17.4648   24.1225 C   0  0  0  0  0  0  0  0  0  0  0  0
   19.0463   16.5153   24.1616 H   0  0  0  0  0  0  0  0  0  0  0  0
   20.6251   17.2159   24.4209 H   0  0  0  0  0  0  0  0  0  0  0  0
   18.9418   18.4187   25.1561 C   0  0  0  0  0  0  0  0  0  0  0  0
   18.9078   17.9157   26.1316 H   0  0  0  0  0  0  0  0  0  0  0  0
   17.8960   18.5951   24.8717 H   0  0  0  0  0  0  0  0  0  0  0  0
   19.6409   19.7804   25.3307 C   0  0  0  0  0  0  0  0  0  0  0  0
   19.6134   20.3346   24.3901 H   0  0  0  0  0  0  0  0  0  0  0  0
   19.1045   20.3676   26.0811 H   0  0  0  0  0  0  0  0  0  0  0  0
   21.0843   19.6693   25.7804 N   0  3  0  0  0  0  0  0  0  0  0  0
   21.5214   20.5906   25.8915 H   0  0  0  0  0  0  0  0  0  0  0  0
   21.6488   19.1439   25.1061 H   0  0  0  0  0  0  0  0  0  0  0  0
   21.1641   19.1890   26.6826 H   0  0  0  0  0  0  0  0  0  0  0  0
  1  2  1  0  0  0  0
  1  3  1  0  0  0  0
  1  4  1  0  0  0  0
  1  5  1  0  0  0  0
  5  6  1  0  0  0  0
  5  7  1  0  0  0  0
  5  8  1  0  0  0  0
  8  9  1  0  0  0  0
  8 10  1  0  0  0  0
  8 11  1  0  0  0  0
 11 12  1  0  0  0  0
 11 13  1  0  0  0  0
 11 14  1  0  0  0  0
 14 15  1  0  0  0  0
 14 16  1  0  0  0  0
 14 17  1  0  0  0  0
 17 18  1  0  0  0  0
 17 19  1  0  0  0  0
 17 20  1  0  0  0  0
 20 21  1  0  0  0  0
 20 22  1  0  0  0  0
 20 23  1  0  0  0  0
 23 24  1  0  0  0  0
 23 25  1  0  0  0  0
 23 26  1  0  0  0  0
M  END
> <VM2 Rank>
152

> <Conf_Id>
526

> <Probability>
0.01

> <Sum Probability>
99.92

> <Delta G>
4.286

> <G>
52.547

> <E>
19.597

> <-TS>
32.950

> <U+W>
-1.864

> <U>
52.362

> <W>
-54.226

> <W(PB)>
-56.458

> <W(SA)>
2.231

> <Valence>
5.334

> <Coulomb>
46.481

> <VdW>
0.546

> <VdW6>
-8.933

> <VdW12>
9.479

> <Bond>
0.278

> <Angle>
1.662

> <Pdih>
3.395

> <Idih>
0.000

> <Tether>
0.000

$$$$
VeraChem MOL file


 26 25  0  0  0  0  0  0  0  0999 V2000     
   20.8888   20.0109   20.4873 C   0  0  0  0  0  0  0  0  0  0  0  0
   20.1579   20.2905   19.7175 H   0  0  0  0  0  0  0  0  0  0  0  0
   20.7406   20.6714   21.3484 H   0  0  0  0  0  0  0  0  0  0  0  0
   21.8898   20.2112   20.0837 H   0  0  0  0  0  0  0  0  0  0  0  0
   20.7476   18.5180   20.8655 C   0  0  0  0  0  0  0  0  0  0  0  0
   21.5259   18.2309   21.5861 H   0  0  0  0  0  0  0  0  0  0  0  0
   20.9379   17.9215   19.9622 H   0  0  0  0  0  0  0  0  0  0  0  0
   19.3441   18.1497   21.4122 C   0  0  0  0  0  0  0  0  0  0  0  0
   18.5793   18.8007   20.9667 H   0  0  0  0  0  0  0  0  0  0  0  0
   19.1016   17.1335   21.0717 H   0  0  0  0  0  0  0  0  0  0  0  0
   19.2230   18.1635   22.9578 C   0  0  0  0  0  0  0  0  0  0  0  0
   19.9267   17.4331   23.3791 H   0  0  0  0  0  0  0  0  0  0  0  0
   18.2178   17.8105   23.2264 H   0  0  0  0  0  0  0  0  0  0  0  0
   19.4565   19.5514   23.6027 C   0  0  0  0  0  0  0  0  0  0  0  0
   20.5020   19.8547   23.4673 H   0  0  0  0  0  0  0  0  0  0  0  0
   18.8434   20.2999   23.0822 H   0  0  0  0  0  0  0  0  0  0  0  0
   19.1040   19.5855   25.1109 C   0  0  0  0  0  0  0  0  0  0  0  0
   18.0341   19.3733   25.2375 H   0  0  0  0  0  0  0  0  0  0  0  0
   19.2623   20.6007   25.4984 H   0  0  0  0  0  0  0  0  0  0  0  0
   19.9107   18.5865   25.9650 C   0  0  0  0  0  0  0  0  0  0  0  0
   19.5807   18.6492   27.0055 H   0  0  0  0  0  0  0  0  0  0  0  0
   19.7294   17.5680   25.6122 H   0  0  0  0  0  0  0  0  0  0  0  0
   21.4062   18.8335   25.9396 N   0  3  0  0  0  0  0  0  0  0  0  0
   21.9138   18.1580   26.5210 H   0  0  0  0  0  0  0  0  0  0  0  0
   21.6430   19.7676   26.2893 H   0  0  0  0  0  0  0  0  0  0  0  0
   21.7846   18.7594   24.9903 H   0  0  0  0  0  0  0  0  0  0  0  0
  1  2  1  0  0  0  0
  1  3  1  0  0  0  0
  1  4  1  0  0  0  0
  1  5  1  0  0  0  0
  5  6  1  0  0  0  0
  5  7  1  0  0  0  0
  5  8  1  0  0  0  0
  8  9  1  0  0  0  0
  8 10  1  0  0  0  0
  8 11  1  0  0  0  0
 11 12  1  0  0  0  0
 11 13  1  0  0  0  0
 11 14  1  0  0  0  0
 14 15  1  0  0  0  0
 14 16  1  0  0  0  0
 14 17  1  0  0  0  0
 17 18  1  0  0  0  0
 17 19  1  0  0  0  0
 17 20  1  0  0  0  0
 20 21  1  0  0  0  0
 20 22  1  0  0  0  0
 20 23  1  0  0  0  0
 23 24  1  0  0  0  0
 23 25  1  0  0  0  0
 23 26  1  0  0  0  0
M  END
> <VM2 Rank>
153

> <Conf_Id>
237

> <Probability>
0.01

> <Sum Probability>
99.92

> <Delta G>
4.340

> <G>
52.602

> <E>
19.625

> <-TS>
32.977

> <U+W>
-1.837

> <U>
52.217

> <W>
-54.054

> <W(PB)>
-56.277

> <W(SA)>
2.223

> <Valence>
5.510

> <Coulomb>
45.996

> <VdW>
0.712

> <VdW6>
-8.694

> <VdW12>
9.406

> <Bond>
0.259

> <Angle>
1.386

> <Pdih>
3.865

> <Idih>
0.000

> <Tether>
0.000

$$$$
VeraChem MOL file


 26 25  0  0  0  0  0  0  0  0999 V2000     
   19.8350   20.2162   20.2943 C   0  0  0  0  0  0  0  0  0  0  0  0
   18.7730   20.3415   20.0465 H   0  0  0  0  0  0  0  0  0  0  0  0
   20.0420   20.8040   21.1953 H   0  0  0  0  0  0  0  0  0  0  0  0
   20.4214   20.6482   19.4731 H   0  0  0  0  0  0  0  0  0  0  0  0
   20.1848   18.7213   20.4807 C   0  0  0  0  0  0  0  0  0  0  0  0
   21.2634   18.5994   20.6523 H   0  0  0  0  0  0  0  0  0  0  0  0
   19.9692   18.2031   19.5358 H   0  0  0  0  0  0  0  0  0  0  0  0
   19.3775   18.0381   21.6144 C   0  0  0  0  0  0  0  0  0  0  0  0
   18.4017   18.5284   21.7348 H   0  0  0  0  0  0  0  0  0  0  0  0
   19.1537   17.0088   21.3016 H   0  0  0  0  0  0  0  0  0  0  0  0
   20.1073   17.9609   22.9805 C   0  0  0  0  0  0  0  0  0  0  0  0
   21.0293   17.3743   22.8679 H   0  0  0  0  0  0  0  0  0  0  0  0
   19.4678   17.3952   23.6704 H   0  0  0  0  0  0  0  0  0  0  0  0
   20.4481   19.3388   23.5997 C   0  0  0  0  0  0  0  0  0  0  0  0
   21.1603   19.8605   22.9478 H   0  0  0  0  0  0  0  0  0  0  0  0
   19.5462   19.9638   23.6393 H   0  0  0  0  0  0  0  0  0  0  0  0
   21.0831   19.2355   25.0096 C   0  0  0  0  0  0  0  0  0  0  0  0
   21.3603   20.2403   25.3553 H   0  0  0  0  0  0  0  0  0  0  0  0
   22.0196   18.6659   24.9439 H   0  0  0  0  0  0  0  0  0  0  0  0
   20.1745   18.5748   26.0664 C   0  0  0  0  0  0  0  0  0  0  0  0
   19.9359   17.5522   25.7635 H   0  0  0  0  0  0  0  0  0  0  0  0
   20.7037   18.5298   27.0221 H   0  0  0  0  0  0  0  0  0  0  0  0
   18.8707   19.3133   26.2955 N   0  3  0  0  0  0  0  0  0  0  0  0
   19.0292   20.2759   26.6104 H   0  0  0  0  0  0  0  0  0  0  0  0
   18.2934   18.8553   27.0089 H   0  0  0  0  0  0  0  0  0  0  0  0
   18.3098   19.3623   25.4393 H   0  0  0  0  0  0  0  0  0  0  0  0
  1  2  1  0  0  0  0
  1  3  1  0  0  0  0
  1  4  1  0  0  0  0
  1  5  1  0  0  0  0
  5  6  1  0  0  0  0
  5  7  1  0  0  0  0
  5  8  1  0  0  0  0
  8  9  1  0  0  0  0
  8 10  1  0  0  0  0
  8 11  1  0  0  0  0
 11 12  1  0  0  0  0
 11 13  1  0  0  0  0
 11 14  1  0  0  0  0
 14 15  1  0  0  0  0
 14 16  1  0  0  0  0
 14 17  1  0  0  0  0
 17 18  1  0  0  0  0
 17 19  1  0  0  0  0
 17 20  1  0  0  0  0
 20 21  1  0  0  0  0
 20 22  1  0  0  0  0
 20 23  1  0  0  0  0
 23 24  1  0  0  0  0
 23 25  1  0  0  0  0
 23 26  1  0  0  0  0
M  END
> <VM2 Rank>
154

> <Conf_Id>
861

> <Probability>
0.01

> <Sum Probability>
99.93

> <Delta G>
4.365

> <G>
52.626

> <E>
19.662

> <-TS>
32.965

> <U+W>
-1.800

> <U>
52.090

> <W>
-53.890

> <W(PB)>
-56.114

> <W(SA)>
2.224

> <Valence>
5.620

> <Coulomb>
45.628

> <VdW>
0.841

> <VdW6>
-8.591

> <VdW12>
9.432

> <Bond>
0.266

> <Angle>
1.473

> <Pdih>
3.881

> <Idih>
0.000

> <Tether>
0.000

$$$$
VeraChem MOL file


 26 25  0  0  0  0  0  0  0  0999 V2000     
   19.0316   19.6859   20.2675 C   0  0  0  0  0  0  0  0  0  0  0  0
   18.3685   19.6992   21.1395 H   0  0  0  0  0  0  0  0  0  0  0  0
   19.3441   20.7187   20.0657 H   0  0  0  0  0  0  0  0  0  0  0  0
   18.4430   19.3422   19.4070 H   0  0  0  0  0  0  0  0  0  0  0  0
   20.2595   18.7707   20.4832 C   0  0  0  0  0  0  0  0  0  0  0  0
   20.8641   18.7940   19.5656 H   0  0  0  0  0  0  0  0  0  0  0  0
   19.9410   17.7264   20.6080 H   0  0  0  0  0  0  0  0  0  0  0  0
   21.1509   19.2089   21.6737 C   0  0  0  0  0  0  0  0  0  0  0  0
   22.1990   19.0193   21.4032 H   0  0  0  0  0  0  0  0  0  0  0  0
   21.0771   20.2947   21.8242 H   0  0  0  0  0  0  0  0  0  0  0  0
   20.8724   18.4660   23.0060 C   0  0  0  0  0  0  0  0  0  0  0  0
   21.6107   18.8098   23.7419 H   0  0  0  0  0  0  0  0  0  0  0  0
   21.0554   17.3914   22.8687 H   0  0  0  0  0  0  0  0  0  0  0  0
   19.4440   18.6758   23.5662 C   0  0  0  0  0  0  0  0  0  0  0  0
   19.2211   19.7491   23.6285 H   0  0  0  0  0  0  0  0  0  0  0  0
   18.7159   18.2466   22.8661 H   0  0  0  0  0  0  0  0  0  0  0  0
   19.2245   18.0083   24.9474 C   0  0  0  0  0  0  0  0  0  0  0  0
   19.3842   16.9258   24.8558 H   0  0  0  0  0  0  0  0  0  0  0  0
   18.1766   18.1381   25.2488 H   0  0  0  0  0  0  0  0  0  0  0  0
   20.1384   18.5510   26.0651 C   0  0  0  0  0  0  0  0  0  0  0  0
   19.9281   18.0176   26.9961 H   0  0  0  0  0  0  0  0  0  0  0  0
   21.1857   18.3775   25.8052 H   0  0  0  0  0  0  0  0  0  0  0  0
   19.9597   20.0324   26.3320 N   0  3  0  0  0  0  0  0  0  0  0  0
   18.9984   20.2556   26.6095 H   0  0  0  0  0  0  0  0  0  0  0  0
   20.1742   20.5935   25.5018 H   0  0  0  0  0  0  0  0  0  0  0  0
   20.5735   20.3609   27.0853 H   0  0  0  0  0  0  0  0  0  0  0  0
  1  2  1  0  0  0  0
  1  3  1  0  0  0  0
  1  4  1  0  0  0  0
  1  5  1  0  0  0  0
  5  6  1  0  0  0  0
  5  7  1  0  0  0  0
  5  8  1  0  0  0  0
  8  9  1  0  0  0  0
  8 10  1  0  0  0  0
  8 11  1  0  0  0  0
 11 12  1  0  0  0  0
 11 13  1  0  0  0  0
 11 14  1  0  0  0  0
 14 15  1  0  0  0  0
 14 16  1  0  0  0  0
 14 17  1  0  0  0  0
 17 18  1  0  0  0  0
 17 19  1  0  0  0  0
 17 20  1  0  0  0  0
 20 21  1  0  0  0  0
 20 22  1  0  0  0  0
 20 23  1  0  0  0  0
 23 24  1  0  0  0  0
 23 25  1  0  0  0  0
 23 26  1  0  0  0  0
M  END
> <VM2 Rank>
155

> <Conf_Id>
1080

> <Probability>
0.01

> <Sum Probability>
99.93

> <Delta G>
4.374

> <G>
52.635

> <E>
19.671

> <-TS>
32.964

> <U+W>
-1.791

> <U>
52.090

> <W>
-53.881

> <W(PB)>
-56.145

> <W(SA)>
2.264

> <Valence>
5.620

> <Coulomb>
45.628

> <VdW>
0.841

> <VdW6>
-8.590

> <VdW12>
9.432

> <Bond>
0.266

> <Angle>
1.473

> <Pdih>
3.881

> <Idih>
0.000

> <Tether>
0.000

$$$$
VeraChem MOL file


 26 25  0  0  0  0  0  0  0  0999 V2000     
   21.1009   19.7190   19.9737 C   0  0  0  0  0  0  0  0  0  0  0  0
   21.6908   19.3123   19.1420 H   0  0  0  0  0  0  0  0  0  0  0  0
   20.2547   20.2733   19.5470 H   0  0  0  0  0  0  0  0  0  0  0  0
   21.7345   20.4297   20.5202 H   0  0  0  0  0  0  0  0  0  0  0  0
   20.6111   18.5856   20.8996 C   0  0  0  0  0  0  0  0  0  0  0  0
   21.4775   18.0291   21.2834 H   0  0  0  0  0  0  0  0  0  0  0  0
   20.0102   17.8733   20.3169 H   0  0  0  0  0  0  0  0  0  0  0  0
   19.7749   19.1315   22.0781 C   0  0  0  0  0  0  0  0  0  0  0  0
   20.3767   19.8567   22.6397 H   0  0  0  0  0  0  0  0  0  0  0  0
   18.9066   19.6795   21.6868 H   0  0  0  0  0  0  0  0  0  0  0  0
   19.2875   17.9965   23.0107 C   0  0  0  0  0  0  0  0  0  0  0  0
   20.1403   17.4272   23.4004 H   0  0  0  0  0  0  0  0  0  0  0  0
   18.7032   17.2803   22.4165 H   0  0  0  0  0  0  0  0  0  0  0  0
   18.3983   18.4916   24.1796 C   0  0  0  0  0  0  0  0  0  0  0  0
   17.4902   18.9474   23.7615 H   0  0  0  0  0  0  0  0  0  0  0  0
   18.0562   17.6189   24.7530 H   0  0  0  0  0  0  0  0  0  0  0  0
   19.0529   19.5040   25.1577 C   0  0  0  0  0  0  0  0  0  0  0  0
   18.2978   19.7791   25.9059 H   0  0  0  0  0  0  0  0  0  0  0  0
   19.3102   20.4380   24.6424 H   0  0  0  0  0  0  0  0  0  0  0  0
   20.2806   18.9559   25.9146 C   0  0  0  0  0  0  0  0  0  0  0  0
   20.4327   19.5442   26.8235 H   0  0  0  0  0  0  0  0  0  0  0  0
   20.1002   17.9185   26.2085 H   0  0  0  0  0  0  0  0  0  0  0  0
   21.5747   19.0149   25.1271 N   0  3  0  0  0  0  0  0  0  0  0  0
   21.8361   19.9800   24.9009 H   0  0  0  0  0  0  0  0  0  0  0  0
   21.5001   18.5047   24.2420 H   0  0  0  0  0  0  0  0  0  0  0  0
   22.3574   18.6080   25.6508 H   0  0  0  0  0  0  0  0  0  0  0  0
  1  2  1  0  0  0  0
  1  3  1  0  0  0  0
  1  4  1  0  0  0  0
  1  5  1  0  0  0  0
  5  6  1  0  0  0  0
  5  7  1  0  0  0  0
  5  8  1  0  0  0  0
  8  9  1  0  0  0  0
  8 10  1  0  0  0  0
  8 11  1  0  0  0  0
 11 12  1  0  0  0  0
 11 13  1  0  0  0  0
 11 14  1  0  0  0  0
 14 15  1  0  0  0  0
 14 16  1  0  0  0  0
 14 17  1  0  0  0  0
 17 18  1  0  0  0  0
 17 19  1  0  0  0  0
 17 20  1  0  0  0  0
 20 21  1  0  0  0  0
 20 22  1  0  0  0  0
 20 23  1  0  0  0  0
 23 24  1  0  0  0  0
 23 25  1  0  0  0  0
 23 26  1  0  0  0  0
M  END
> <VM2 Rank>
156

> <Conf_Id>
1335

> <Probability>
0.00

> <Sum Probability>
99.94

> <Delta G>
4.444

> <G>
52.705

> <E>
19.590

> <-TS>
33.115

> <U+W>
-1.872

> <U>
51.717

> <W>
-53.589

> <W(PB)>
-55.826

> <W(SA)>
2.237

> <Valence>
4.226

> <Coulomb>
47.188

> <VdW>
0.304

> <VdW6>
-8.652

> <VdW12>
8.956

> <Bond>
0.232

> <Angle>
1.463

> <Pdih>
2.531

> <Idih>
0.000

> <Tether>
0.000

$$$$
VeraChem MOL file


 26 25  0  0  0  0  0  0  0  0999 V2000     
   19.9308   20.3954   20.6866 C   0  0  0  0  0  0  0  0  0  0  0  0
   19.0284   20.6540   21.2555 H   0  0  0  0  0  0  0  0  0  0  0  0
   20.8104   20.6577   21.2873 H   0  0  0  0  0  0  0  0  0  0  0  0
   19.9509   21.0217   19.7853 H   0  0  0  0  0  0  0  0  0  0  0  0
   19.9389   18.8993   20.3043 C   0  0  0  0  0  0  0  0  0  0  0  0
   20.8809   18.6584   19.7922 H   0  0  0  0  0  0  0  0  0  0  0  0
   19.1398   18.7188   19.5717 H   0  0  0  0  0  0  0  0  0  0  0  0
   19.7354   17.9355   21.5011 C   0  0  0  0  0  0  0  0  0  0  0  0
   18.7490   18.1057   21.9497 H   0  0  0  0  0  0  0  0  0  0  0  0
   19.7033   16.9135   21.0992 H   0  0  0  0  0  0  0  0  0  0  0  0
   20.8552   17.9945   22.5760 C   0  0  0  0  0  0  0  0  0  0  0  0
   21.8006   18.2886   22.0998 H   0  0  0  0  0  0  0  0  0  0  0  0
   21.0270   16.9820   22.9666 H   0  0  0  0  0  0  0  0  0  0  0  0
   20.5649   18.9363   23.7738 C   0  0  0  0  0  0  0  0  0  0  0  0
   21.5002   19.0740   24.3322 H   0  0  0  0  0  0  0  0  0  0  0  0
   20.2715   19.9311   23.4178 H   0  0  0  0  0  0  0  0  0  0  0  0
   19.4792   18.3871   24.7338 C   0  0  0  0  0  0  0  0  0  0  0  0
   19.7804   17.4037   25.1184 H   0  0  0  0  0  0  0  0  0  0  0  0
   18.5392   18.2343   24.1902 H   0  0  0  0  0  0  0  0  0  0  0  0
   19.1980   19.3351   25.9157 C   0  0  0  0  0  0  0  0  0  0  0  0
   18.9104   20.3197   25.5374 H   0  0  0  0  0  0  0  0  0  0  0  0
   18.3665   18.9407   26.5062 H   0  0  0  0  0  0  0  0  0  0  0  0
   20.3786   19.5157   26.8497 N   0  3  0  0  0  0  0  0  0  0  0  0
   21.1868   19.9197   26.3667 H   0  0  0  0  0  0  0  0  0  0  0  0
   20.6822   18.6248   27.2561 H   0  0  0  0  0  0  0  0  0  0  0  0
   20.1532   20.1402   27.6317 H   0  0  0  0  0  0  0  0  0  0  0  0
  1  2  1  0  0  0  0
  1  3  1  0  0  0  0
  1  4  1  0  0  0  0
  1  5  1  0  0  0  0
  5  6  1  0  0  0  0
  5  7  1  0  0  0  0
  5  8  1  0  0  0  0
  8  9  1  0  0  0  0
  8 10  1  0  0  0  0
  8 11  1  0  0  0  0
 11 12  1  0  0  0  0
 11 13  1  0  0  0  0
 11 14  1  0  0  0  0
 14 15  1  0  0  0  0
 14 16  1  0  0  0  0
 14 17  1  0  0  0  0
 17 18  1  0  0  0  0
 17 19  1  0  0  0  0
 17 20  1  0  0  0  0
 20 21  1  0  0  0  0
 20 22  1  0  0  0  0
 20 23  1  0  0  0  0
 23 24  1  0  0  0  0
 23 25  1  0  0  0  0
 23 26  1  0  0  0  0
M  END
> <VM2 Rank>
157

> <Conf_Id>
157

> <Probability>
0.00

> <Sum Probability>
99.94

> <Delta G>
4.457

> <G>
52.718

> <E>
19.851

> <-TS>
32.867

> <U+W>
-1.611

> <U>
52.210

> <W>
-53.821

> <W(PB)>
-56.081

> <W(SA)>
2.260

> <Valence>
6.007

> <Coulomb>
45.272

> <VdW>
0.931

> <VdW6>
-8.392

> <VdW12>
9.322

> <Bond>
0.291

> <Angle>
1.471

> <Pdih>
4.245

> <Idih>
0.000

> <Tether>
0.000

$$$$
VeraChem MOL file


 26 25  0  0  0  0  0  0  0  0999 V2000     
   19.0062   18.3384   19.9040 C   0  0  0  0  0  0  0  0  0  0  0  0
   18.8498   19.3472   19.5003 H   0  0  0  0  0  0  0  0  0  0  0  0
   19.1863   17.6615   19.0588 H   0  0  0  0  0  0  0  0  0  0  0  0
   18.0791   18.0205   20.3986 H   0  0  0  0  0  0  0  0  0  0  0  0
   20.1966   18.3125   20.8860 C   0  0  0  0  0  0  0  0  0  0  0  0
   21.1140   18.6008   20.3538 H   0  0  0  0  0  0  0  0  0  0  0  0
   20.3491   17.2855   21.2461 H   0  0  0  0  0  0  0  0  0  0  0  0
   19.9694   19.2598   22.0846 C   0  0  0  0  0  0  0  0  0  0  0  0
   19.8260   20.2855   21.7175 H   0  0  0  0  0  0  0  0  0  0  0  0
   19.0408   18.9765   22.5952 H   0  0  0  0  0  0  0  0  0  0  0  0
   21.1600   19.2307   23.0733 C   0  0  0  0  0  0  0  0  0  0  0  0
   22.0751   19.5028   22.5291 H   0  0  0  0  0  0  0  0  0  0  0  0
   21.3293   18.2109   23.4401 H   0  0  0  0  0  0  0  0  0  0  0  0
   21.0006   20.2068   24.2666 C   0  0  0  0  0  0  0  0  0  0  0  0
   21.9098   20.1588   24.8817 H   0  0  0  0  0  0  0  0  0  0  0  0
   20.9587   21.2335   23.8775 H   0  0  0  0  0  0  0  0  0  0  0  0
   19.7682   19.9752   25.1817 C   0  0  0  0  0  0  0  0  0  0  0  0
   18.8332   20.1237   24.6267 H   0  0  0  0  0  0  0  0  0  0  0  0
   19.7778   20.7541   25.9557 H   0  0  0  0  0  0  0  0  0  0  0  0
   19.7533   18.6081   25.8967 C   0  0  0  0  0  0  0  0  0  0  0  0
   20.7633   18.3549   26.2301 H   0  0  0  0  0  0  0  0  0  0  0  0
   19.1112   18.6727   26.7792 H   0  0  0  0  0  0  0  0  0  0  0  0
   19.2266   17.4676   25.0481 N   0  3  0  0  0  0  0  0  0  0  0  0
   18.2481   17.6157   24.7808 H   0  0  0  0  0  0  0  0  0  0  0  0
   19.2680   16.5720   25.5468 H   0  0  0  0  0  0  0  0  0  0  0  0
   19.7654   17.3620   24.1834 H   0  0  0  0  0  0  0  0  0  0  0  0
  1  2  1  0  0  0  0
  1  3  1  0  0  0  0
  1  4  1  0  0  0  0
  1  5  1  0  0  0  0
  5  6  1  0  0  0  0
  5  7  1  0  0  0  0
  5  8  1  0  0  0  0
  8  9  1  0  0  0  0
  8 10  1  0  0  0  0
  8 11  1  0  0  0  0
 11 12  1  0  0  0  0
 11 13  1  0  0  0  0
 11 14  1  0  0  0  0
 14 15  1  0  0  0  0
 14 16  1  0  0  0  0
 14 17  1  0  0  0  0
 17 18  1  0  0  0  0
 17 19  1  0  0  0  0
 17 20  1  0  0  0  0
 20 21  1  0  0  0  0
 20 22  1  0  0  0  0
 20 23  1  0  0  0  0
 23 24  1  0  0  0  0
 23 25  1  0  0  0  0
 23 26  1  0  0  0  0
M  END
> <VM2 Rank>
158

> <Conf_Id>
571

> <Probability>
0.00

> <Sum Probability>
99.95

> <Delta G>
4.468

> <G>
52.729

> <E>
19.614

> <-TS>
33.115

> <U+W>
-1.848

> <U>
51.718

> <W>
-53.566

> <W(PB)>
-55.820

> <W(SA)>
2.254

> <Valence>
4.225

> <Coulomb>
47.188

> <VdW>
0.304

> <VdW6>
-8.653

> <VdW12>
8.958

> <Bond>
0.232

> <Angle>
1.462

> <Pdih>
2.532

> <Idih>
0.000

> <Tether>
0.000

$$$$
VeraChem MOL file


 26 25  0  0  0  0  0  0  0  0999 V2000     
   19.8646   18.9877   19.7039 C   0  0  0  0  0  0  0  0  0  0  0  0
   18.9197   19.5423   19.6359 H   0  0  0  0  0  0  0  0  0  0  0  0
   20.6830   19.7118   19.8002 H   0  0  0  0  0  0  0  0  0  0  0  0
   20.0085   18.4527   18.7563 H   0  0  0  0  0  0  0  0  0  0  0  0
   19.8422   17.9939   20.8875 C   0  0  0  0  0  0  0  0  0  0  0  0
   20.8099   17.4776   20.9552 H   0  0  0  0  0  0  0  0  0  0  0  0
   19.0933   17.2165   20.6810 H   0  0  0  0  0  0  0  0  0  0  0  0
   19.5066   18.6566   22.2456 C   0  0  0  0  0  0  0  0  0  0  0  0
   18.5327   19.1599   22.1737 H   0  0  0  0  0  0  0  0  0  0  0  0
   19.3868   17.8603   22.9878 H   0  0  0  0  0  0  0  0  0  0  0  0
   20.5820   19.6686   22.7184 C   0  0  0  0  0  0  0  0  0  0  0  0
   20.6394   20.4824   21.9838 H   0  0  0  0  0  0  0  0  0  0  0  0
   21.5735   19.1957   22.7263 H   0  0  0  0  0  0  0  0  0  0  0  0
   20.2850   20.3038   24.1022 C   0  0  0  0  0  0  0  0  0  0  0  0
   20.7223   21.3118   24.1093 H   0  0  0  0  0  0  0  0  0  0  0  0
   19.2049   20.4543   24.2313 H   0  0  0  0  0  0  0  0  0  0  0  0
   20.8825   19.5367   25.3120 C   0  0  0  0  0  0  0  0  0  0  0  0
   20.7309   20.1326   26.2218 H   0  0  0  0  0  0  0  0  0  0  0  0
   21.9699   19.4530   25.1846 H   0  0  0  0  0  0  0  0  0  0  0  0
   20.3039   18.1281   25.5446 C   0  0  0  0  0  0  0  0  0  0  0  0
   20.4925   17.5006   24.6705 H   0  0  0  0  0  0  0  0  0  0  0  0
   20.8042   17.6694   26.4018 H   0  0  0  0  0  0  0  0  0  0  0  0
   18.8143   18.1235   25.8268 N   0  3  0  0  0  0  0  0  0  0  0  0
   18.2822   18.5276   25.0502 H   0  0  0  0  0  0  0  0  0  0  0  0
   18.5861   18.6669   26.6656 H   0  0  0  0  0  0  0  0  0  0  0  0
   18.4577   17.1739   25.9790 H   0  0  0  0  0  0  0  0  0  0  0  0
  1  2  1  0  0  0  0
  1  3  1  0  0  0  0
  1  4  1  0  0  0  0
  1  5  1  0  0  0  0
  5  6  1  0  0  0  0
  5  7  1  0  0  0  0
  5  8  1  0  0  0  0
  8  9  1  0  0  0  0
  8 10  1  0  0  0  0
  8 11  1  0  0  0  0
 11 12  1  0  0  0  0
 11 13  1  0  0  0  0
 11 14  1  0  0  0  0
 14 15  1  0  0  0  0
 14 16  1  0  0  0  0
 14 17  1  0  0  0  0
 17 18  1  0  0  0  0
 17 19  1  0  0  0  0
 17 20  1  0  0  0  0
 20 21  1  0  0  0  0
 20 22  1  0  0  0  0
 20 23  1  0  0  0  0
 23 24  1  0  0  0  0
 23 25  1  0  0  0  0
 23 26  1  0  0  0  0
M  END
> <VM2 Rank>
159

> <Conf_Id>
216

> <Probability>
0.00

> <Sum Probability>
99.95

> <Delta G>
4.485

> <G>
52.746

> <E>
19.756

> <-TS>
32.990

> <U+W>
-1.706

> <U>
52.488

> <W>
-54.194

> <W(PB)>
-56.463

> <W(SA)>
2.269

> <Valence>
5.467

> <Coulomb>
46.392

> <VdW>
0.629

> <VdW6>
-8.780

> <VdW12>
9.409

> <Bond>
0.279

> <Angle>
1.627

> <Pdih>
3.561

> <Idih>
0.000

> <Tether>
0.000

$$$$
VeraChem MOL file


 26 25  0  0  0  0  0  0  0  0999 V2000     
   18.5830   19.1136   20.8809 C   0  0  0  0  0  0  0  0  0  0  0  0
   18.4938   19.9320   21.6025 H   0  0  0  0  0  0  0  0  0  0  0  0
   18.1415   19.4598   19.9374 H   0  0  0  0  0  0  0  0  0  0  0  0
   17.9783   18.2716   21.2416 H   0  0  0  0  0  0  0  0  0  0  0  0
   20.0529   18.6872   20.6617 C   0  0  0  0  0  0  0  0  0  0  0  0
   20.6444   19.5365   20.2927 H   0  0  0  0  0  0  0  0  0  0  0  0
   20.0673   17.9383   19.8575 H   0  0  0  0  0  0  0  0  0  0  0  0
   20.7243   18.0671   21.9149 C   0  0  0  0  0  0  0  0  0  0  0  0
   19.9937   17.4927   22.4993 H   0  0  0  0  0  0  0  0  0  0  0  0
   21.4585   17.3280   21.5656 H   0  0  0  0  0  0  0  0  0  0  0  0
   21.4879   19.0738   22.8174 C   0  0  0  0  0  0  0  0  0  0  0  0
   22.2433   19.5911   22.2100 H   0  0  0  0  0  0  0  0  0  0  0  0
   22.0573   18.5076   23.5666 H   0  0  0  0  0  0  0  0  0  0  0  0
   20.6222   20.1372   23.5420 C   0  0  0  0  0  0  0  0  0  0  0  0
   21.2852   20.7700   24.1480 H   0  0  0  0  0  0  0  0  0  0  0  0
   20.1731   20.8119   22.8028 H   0  0  0  0  0  0  0  0  0  0  0  0
   19.5167   19.5584   24.4601 C   0  0  0  0  0  0  0  0  0  0  0  0
   18.7842   18.9994   23.8651 H   0  0  0  0  0  0  0  0  0  0  0  0
   18.9690   20.3901   24.9226 H   0  0  0  0  0  0  0  0  0  0  0  0
   20.0814   18.6496   25.5674 C   0  0  0  0  0  0  0  0  0  0  0  0
   20.5952   17.7961   25.1173 H   0  0  0  0  0  0  0  0  0  0  0  0
   20.8031   19.2082   26.1694 H   0  0  0  0  0  0  0  0  0  0  0  0
   19.0125   18.1121   26.4968 N   0  3  0  0  0  0  0  0  0  0  0  0
   18.3153   17.5530   25.9947 H   0  0  0  0  0  0  0  0  0  0  0  0
   18.5081   18.8659   26.9747 H   0  0  0  0  0  0  0  0  0  0  0  0
   19.4098   17.5099   27.2261 H   0  0  0  0  0  0  0  0  0  0  0  0
  1  2  1  0  0  0  0
  1  3  1  0  0  0  0
  1  4  1  0  0  0  0
  1  5  1  0  0  0  0
  5  6  1  0  0  0  0
  5  7  1  0  0  0  0
  5  8  1  0  0  0  0
  8  9  1  0  0  0  0
  8 10  1  0  0  0  0
  8 11  1  0  0  0  0
 11 12  1  0  0  0  0
 11 13  1  0  0  0  0
 11 14  1  0  0  0  0
 14 15  1  0  0  0  0
 14 16  1  0  0  0  0
 14 17  1  0  0  0  0
 17 18  1  0  0  0  0
 17 19  1  0  0  0  0
 17 20  1  0  0  0  0
 20 21  1  0  0  0  0
 20 22  1  0  0  0  0
 20 23  1  0  0  0  0
 23 24  1  0  0  0  0
 23 25  1  0  0  0  0
 23 26  1  0  0  0  0
M  END
> <VM2 Rank>
160

> <Conf_Id>
1113

> <Probability>
0.00

> <Sum Probability>
99.95

> <Delta G>
4.486

> <G>
52.747

> <E>
19.426

> <-TS>
33.321

> <U+W>
-2.035

> <U>
52.153

> <W>
-54.188

> <W(PB)>
-56.391

> <W(SA)>
2.203

> <Valence>
5.986

> <Coulomb>
45.781

> <VdW>
0.386

> <VdW6>
-9.288

> <VdW12>
9.673

> <Bond>
0.289

> <Angle>
2.079

> <Pdih>
3.617

> <Idih>
0.000

> <Tether>
0.000

$$$$
VeraChem MOL file


 26 25  0  0  0  0  0  0  0  0999 V2000     
   18.4296   19.3488   20.6481 C   0  0  0  0  0  0  0  0  0  0  0  0
   18.8921   19.6908   19.7131 H   0  0  0  0  0  0  0  0  0  0  0  0
   17.5676   18.7211   20.3876 H   0  0  0  0  0  0  0  0  0  0  0  0
   18.0550   20.2292   21.1864 H   0  0  0  0  0  0  0  0  0  0  0  0
   19.4376   18.5597   21.5097 C   0  0  0  0  0  0  0  0  0  0  0  0
   19.7697   17.6687   20.9589 H   0  0  0  0  0  0  0  0  0  0  0  0
   18.9293   18.2008   22.4129 H   0  0  0  0  0  0  0  0  0  0  0  0
   20.6637   19.4239   21.8873 C   0  0  0  0  0  0  0  0  0  0  0  0
   21.1369   19.7844   20.9635 H   0  0  0  0  0  0  0  0  0  0  0  0
   20.3451   20.3249   22.4260 H   0  0  0  0  0  0  0  0  0  0  0  0
   21.7305   18.6606   22.7115 C   0  0  0  0  0  0  0  0  0  0  0  0
   22.5926   19.3237   22.8672 H   0  0  0  0  0  0  0  0  0  0  0  0
   22.1068   17.8231   22.1081 H   0  0  0  0  0  0  0  0  0  0  0  0
   21.2704   18.1095   24.0885 C   0  0  0  0  0  0  0  0  0  0  0  0
   20.4889   17.3505   23.9595 H   0  0  0  0  0  0  0  0  0  0  0  0
   22.1240   17.5716   24.5237 H   0  0  0  0  0  0  0  0  0  0  0  0
   20.8267   19.1933   25.1074 C   0  0  0  0  0  0  0  0  0  0  0  0
   21.4596   20.0837   24.9967 H   0  0  0  0  0  0  0  0  0  0  0  0
   21.0067   18.8225   26.1253 H   0  0  0  0  0  0  0  0  0  0  0  0
   19.3434   19.6038   25.0007 C   0  0  0  0  0  0  0  0  0  0  0  0
   19.1556   20.4506   25.6663 H   0  0  0  0  0  0  0  0  0  0  0  0
   19.1086   19.9161   23.9815 H   0  0  0  0  0  0  0  0  0  0  0  0
   18.3790   18.4995   25.3877 N   0  3  0  0  0  0  0  0  0  0  0  0
   17.4023   18.8036   25.3123 H   0  0  0  0  0  0  0  0  0  0  0  0
   18.5223   18.1935   26.3556 H   0  0  0  0  0  0  0  0  0  0  0  0
   18.4857   17.6739   24.7911 H   0  0  0  0  0  0  0  0  0  0  0  0
  1  2  1  0  0  0  0
  1  3  1  0  0  0  0
  1  4  1  0  0  0  0
  1  5  1  0  0  0  0
  5  6  1  0  0  0  0
  5  7  1  0  0  0  0
  5  8  1  0  0  0  0
  8  9  1  0  0  0  0
  8 10  1  0  0  0  0
  8 11  1  0  0  0  0
 11 12  1  0  0  0  0
 11 13  1  0  0  0  0
 11 14  1  0  0  0  0
 14 15  1  0  0  0  0
 14 16  1  0  0  0  0
 14 17  1  0  0  0  0
 17 18  1  0  0  0  0
 17 19  1  0  0  0  0
 17 20  1  0  0  0  0
 20 21  1  0  0  0  0
 20 22  1  0  0  0  0
 20 23  1  0  0  0  0
 23 24  1  0  0  0  0
 23 25  1  0  0  0  0
 23 26  1  0  0  0  0
M  END
> <VM2 Rank>
161

> <Conf_Id>
702

> <Probability>
0.00

> <Sum Probability>
99.96

> <Delta G>
4.495

> <G>
52.757

> <E>
19.305

> <-TS>
33.452

> <U+W>
-2.157

> <U>
52.359

> <W>
-54.516

> <W(PB)>
-56.739

> <W(SA)>
2.223

> <Valence>
5.321

> <Coulomb>
46.894

> <VdW>
0.144

> <VdW6>
-9.549

> <VdW12>
9.694

> <Bond>
0.274

> <Angle>
1.814

> <Pdih>
3.233

> <Idih>
0.000

> <Tether>
0.000

$$$$
VeraChem MOL file


 26 25  0  0  0  0  0  0  0  0999 V2000     
   20.5094   20.3841   20.9451 C   0  0  0  0  0  0  0  0  0  0  0  0
   19.7594   20.7666   21.6448 H   0  0  0  0  0  0  0  0  0  0  0  0
   21.5036   20.5964   21.3590 H   0  0  0  0  0  0  0  0  0  0  0  0
   20.4087   20.9551   20.0130 H   0  0  0  0  0  0  0  0  0  0  0  0
   20.3338   18.8727   20.6710 C   0  0  0  0  0  0  0  0  0  0  0  0
   21.0533   18.5888   19.8902 H   0  0  0  0  0  0  0  0  0  0  0  0
   19.3385   18.6756   20.2492 H   0  0  0  0  0  0  0  0  0  0  0  0
   20.5816   17.9730   21.9099 C   0  0  0  0  0  0  0  0  0  0  0  0
   20.9883   17.0180   21.5497 H   0  0  0  0  0  0  0  0  0  0  0  0
   21.3690   18.3996   22.5449 H   0  0  0  0  0  0  0  0  0  0  0  0
   19.3152   17.6408   22.7448 C   0  0  0  0  0  0  0  0  0  0  0  0
   19.5769   16.8717   23.4838 H   0  0  0  0  0  0  0  0  0  0  0  0
   18.5717   17.1696   22.0874 H   0  0  0  0  0  0  0  0  0  0  0  0
   18.6448   18.8330   23.4759 C   0  0  0  0  0  0  0  0  0  0  0  0
   18.2359   19.5342   22.7381 H   0  0  0  0  0  0  0  0  0  0  0  0
   17.7751   18.4550   24.0308 H   0  0  0  0  0  0  0  0  0  0  0  0
   19.5679   19.5920   24.4618 C   0  0  0  0  0  0  0  0  0  0  0  0
   18.9976   20.4088   24.9235 H   0  0  0  0  0  0  0  0  0  0  0  0
   20.3967   20.0625   23.9190 H   0  0  0  0  0  0  0  0  0  0  0  0
   20.1292   18.6810   25.5691 C   0  0  0  0  0  0  0  0  0  0  0  0
   19.3045   18.2199   26.1192 H   0  0  0  0  0  0  0  0  0  0  0  0
   20.7324   17.8865   25.1221 H   0  0  0  0  0  0  0  0  0  0  0  0
   20.9990   19.4224   26.5635 N   0  3  0  0  0  0  0  0  0  0  0  0
   20.4824   20.1682   27.0409 H   0  0  0  0  0  0  0  0  0  0  0  0
   21.8099   19.8578   26.1120 H   0  0  0  0  0  0  0  0  0  0  0  0
   21.3621   18.7977   27.2917 H   0  0  0  0  0  0  0  0  0  0  0  0
  1  2  1  0  0  0  0
  1  3  1  0  0  0  0
  1  4  1  0  0  0  0
  1  5  1  0  0  0  0
  5  6  1  0  0  0  0
  5  7  1  0  0  0  0
  5  8  1  0  0  0  0
  8  9  1  0  0  0  0
  8 10  1  0  0  0  0
  8 11  1  0  0  0  0
 11 12  1  0  0  0  0
 11 13  1  0  0  0  0
 11 14  1  0  0  0  0
 14 15  1  0  0  0  0
 14 16  1  0  0  0  0
 14 17  1  0  0  0  0
 17 18  1  0  0  0  0
 17 19  1  0  0  0  0
 17 20  1  0  0  0  0
 20 21  1  0  0  0  0
 20 22  1  0  0  0  0
 20 23  1  0  0  0  0
 23 24  1  0  0  0  0
 23 25  1  0  0  0  0
 23 26  1  0  0  0  0
M  END
> <VM2 Rank>
162

> <Conf_Id>
1324

> <Probability>
0.00

> <Sum Probability>
99.96

> <Delta G>
4.504

> <G>
52.765

> <E>
19.445

> <-TS>
33.321

> <U+W>
-2.017

> <U>
52.152

> <W>
-54.169

> <W(PB)>
-56.395

> <W(SA)>
2.226

> <Valence>
5.986

> <Coulomb>
45.781

> <VdW>
0.385

> <VdW6>
-9.287

> <VdW12>
9.673

> <Bond>
0.289

> <Angle>
2.079

> <Pdih>
3.617

> <Idih>
0.000

> <Tether>
0.000

$$$$
VeraChem MOL file


 26 25  0  0  0  0  0  0  0  0999 V2000     
   20.8592   18.2368   20.0107 C   0  0  0  0  0  0  0  0  0  0  0  0
   20.6456   17.2825   20.5070 H   0  0  0  0  0  0  0  0  0  0  0  0
   20.1607   18.3497   19.1715 H   0  0  0  0  0  0  0  0  0  0  0  0
   21.8733   18.1731   19.5953 H   0  0  0  0  0  0  0  0  0  0  0  0
   20.7499   19.4294   20.9886 C   0  0  0  0  0  0  0  0  0  0  0  0
   21.0615   20.3416   20.4610 H   0  0  0  0  0  0  0  0  0  0  0  0
   21.4631   19.2948   21.8108 H   0  0  0  0  0  0  0  0  0  0  0  0
   19.3139   19.6415   21.5340 C   0  0  0  0  0  0  0  0  0  0  0  0
   19.2429   20.6293   22.0095 H   0  0  0  0  0  0  0  0  0  0  0  0
   18.6243   19.6783   20.6794 H   0  0  0  0  0  0  0  0  0  0  0  0
   18.8234   18.5519   22.5263 C   0  0  0  0  0  0  0  0  0  0  0  0
   19.2998   17.5864   22.3155 H   0  0  0  0  0  0  0  0  0  0  0  0
   17.7501   18.3931   22.3530 H   0  0  0  0  0  0  0  0  0  0  0  0
   19.0045   18.9103   24.0240 C   0  0  0  0  0  0  0  0  0  0  0  0
   18.4340   19.8210   24.2532 H   0  0  0  0  0  0  0  0  0  0  0  0
   18.5511   18.1078   24.6204 H   0  0  0  0  0  0  0  0  0  0  0  0
   20.4779   19.1047   24.4574 C   0  0  0  0  0  0  0  0  0  0  0  0
   20.9022   19.9691   23.9319 H   0  0  0  0  0  0  0  0  0  0  0  0
   21.0755   18.2296   24.1698 H   0  0  0  0  0  0  0  0  0  0  0  0
   20.6252   19.3547   25.9709 C   0  0  0  0  0  0  0  0  0  0  0  0
   21.6682   19.5913   26.1985 H   0  0  0  0  0  0  0  0  0  0  0  0
   20.0100   20.2094   26.2646 H   0  0  0  0  0  0  0  0  0  0  0  0
   20.2270   18.1697   26.8290 N   0  3  0  0  0  0  0  0  0  0  0  0
   19.2438   17.9155   26.6934 H   0  0  0  0  0  0  0  0  0  0  0  0
   20.3513   18.3648   27.8284 H   0  0  0  0  0  0  0  0  0  0  0  0
   20.7875   17.3387   26.6142 H   0  0  0  0  0  0  0  0  0  0  0  0
  1  2  1  0  0  0  0
  1  3  1  0  0  0  0
  1  4  1  0  0  0  0
  1  5  1  0  0  0  0
  5  6  1  0  0  0  0
  5  7  1  0  0  0  0
  5  8  1  0  0  0  0
  8  9  1  0  0  0  0
  8 10  1  0  0  0  0
  8 11  1  0  0  0  0
 11 12  1  0  0  0  0
 11 13  1  0  0  0  0
 11 14  1  0  0  0  0
 14 15  1  0  0  0  0
 14 16  1  0  0  0  0
 14 17  1  0  0  0  0
 17 18  1  0  0  0  0
 17 19  1  0  0  0  0
 17 20  1  0  0  0  0
 20 21  1  0  0  0  0
 20 22  1  0  0  0  0
 20 23  1  0  0  0  0
 23 24  1  0  0  0  0
 23 25  1  0  0  0  0
 23 26  1  0  0  0  0
M  END
> <VM2 Rank>
163

> <Conf_Id>
536

> <Probability>
0.00

> <Sum Probability>
99.97

> <Delta G>
4.507

> <G>
52.769

> <E>
19.899

> <-TS>
32.870

> <U+W>
-1.563

> <U>
52.213

> <W>
-53.776

> <W(PB)>
-56.014

> <W(SA)>
2.238

> <Valence>
6.034

> <Coulomb>
45.240

> <VdW>
0.939

> <VdW6>
-8.400

> <VdW12>
9.339

> <Bond>
0.287

> <Angle>
1.515

> <Pdih>
4.233

> <Idih>
0.000

> <Tether>
0.000

$$$$
VeraChem MOL file


 26 25  0  0  0  0  0  0  0  0999 V2000     
   18.9626   20.1021   21.0872 C   0  0  0  0  0  0  0  0  0  0  0  0
   19.5669   21.0172   21.0397 H   0  0  0  0  0  0  0  0  0  0  0  0
   18.0892   20.2466   20.4383 H   0  0  0  0  0  0  0  0  0  0  0  0
   18.5946   19.9907   22.1124 H   0  0  0  0  0  0  0  0  0  0  0  0
   19.7802   18.8740   20.6240 C   0  0  0  0  0  0  0  0  0  0  0  0
   20.0463   19.0270   19.5687 H   0  0  0  0  0  0  0  0  0  0  0  0
   19.1567   17.9695   20.6494 H   0  0  0  0  0  0  0  0  0  0  0  0
   21.0866   18.6509   21.4296 C   0  0  0  0  0  0  0  0  0  0  0  0
   21.8353   18.2329   20.7426 H   0  0  0  0  0  0  0  0  0  0  0  0
   21.5042   19.6113   21.7589 H   0  0  0  0  0  0  0  0  0  0  0  0
   20.9613   17.6637   22.6218 C   0  0  0  0  0  0  0  0  0  0  0  0
   21.9612   17.5012   23.0473 H   0  0  0  0  0  0  0  0  0  0  0  0
   20.6410   16.6858   22.2369 H   0  0  0  0  0  0  0  0  0  0  0  0
   20.0013   18.0845   23.7622 C   0  0  0  0  0  0  0  0  0  0  0  0
   18.9771   18.1672   23.3777 H   0  0  0  0  0  0  0  0  0  0  0  0
   19.9777   17.2720   24.5003 H   0  0  0  0  0  0  0  0  0  0  0  0
   20.4199   19.3991   24.4677 C   0  0  0  0  0  0  0  0  0  0  0  0
   20.4545   20.2196   23.7409 H   0  0  0  0  0  0  0  0  0  0  0  0
   21.4350   19.2995   24.8744 H   0  0  0  0  0  0  0  0  0  0  0  0
   19.4507   19.8018   25.5957 C   0  0  0  0  0  0  0  0  0  0  0  0
   19.7446   20.7764   25.9949 H   0  0  0  0  0  0  0  0  0  0  0  0
   18.4368   19.8889   25.1960 H   0  0  0  0  0  0  0  0  0  0  0  0
   19.4183   18.8229   26.7529 N   0  3  0  0  0  0  0  0  0  0  0  0
   18.7748   19.1274   27.4914 H   0  0  0  0  0  0  0  0  0  0  0  0
   20.3413   18.7149   27.1859 H   0  0  0  0  0  0  0  0  0  0  0  0
   19.1129   17.8916   26.4541 H   0  0  0  0  0  0  0  0  0  0  0  0
  1  2  1  0  0  0  0
  1  3  1  0  0  0  0
  1  4  1  0  0  0  0
  1  5  1  0  0  0  0
  5  6  1  0  0  0  0
  5  7  1  0  0  0  0
  5  8  1  0  0  0  0
  8  9  1  0  0  0  0
  8 10  1  0  0  0  0
  8 11  1  0  0  0  0
 11 12  1  0  0  0  0
 11 13  1  0  0  0  0
 11 14  1  0  0  0  0
 14 15  1  0  0  0  0
 14 16  1  0  0  0  0
 14 17  1  0  0  0  0
 17 18  1  0  0  0  0
 17 19  1  0  0  0  0
 17 20  1  0  0  0  0
 20 21  1  0  0  0  0
 20 22  1  0  0  0  0
 20 23  1  0  0  0  0
 23 24  1  0  0  0  0
 23 25  1  0  0  0  0
 23 26  1  0  0  0  0
M  END
> <VM2 Rank>
164

> <Conf_Id>
1093

> <Probability>
0.00

> <Sum Probability>
99.97

> <Delta G>
4.512

> <G>
52.774

> <E>
19.499

> <-TS>
33.275

> <U+W>
-1.963

> <U>
51.929

> <W>
-53.892

> <W(PB)>
-56.114

> <W(SA)>
2.222

> <Valence>
5.867

> <Coulomb>
45.498

> <VdW>
0.563

> <VdW6>
-9.057

> <VdW12>
9.621

> <Bond>
0.287

> <Angle>
1.895

> <Pdih>
3.685

> <Idih>
0.000

> <Tether>
0.000

$$$$
VeraChem MOL file


 26 25  0  0  0  0  0  0  0  0999 V2000     
   20.3633   20.6251   20.7127 C   0  0  0  0  0  0  0  0  0  0  0  0
   19.6763   21.2992   21.2405 H   0  0  0  0  0  0  0  0  0  0  0  0
   21.2901   21.1780   20.5120 H   0  0  0  0  0  0  0  0  0  0  0  0
   19.9114   20.3634   19.7471 H   0  0  0  0  0  0  0  0  0  0  0  0
   20.6531   19.3619   21.5504 C   0  0  0  0  0  0  0  0  0  0  0  0
   21.1401   19.6600   22.4868 H   0  0  0  0  0  0  0  0  0  0  0  0
   21.3671   18.7230   21.0123 H   0  0  0  0  0  0  0  0  0  0  0  0
   19.3608   18.5640   21.8437 C   0  0  0  0  0  0  0  0  0  0  0  0
   18.6328   19.1948   22.3688 H   0  0  0  0  0  0  0  0  0  0  0  0
   18.8871   18.2995   20.8883 H   0  0  0  0  0  0  0  0  0  0  0  0
   19.6055   17.2581   22.6405 C   0  0  0  0  0  0  0  0  0  0  0  0
   20.2555   16.6012   22.0462 H   0  0  0  0  0  0  0  0  0  0  0  0
   18.6510   16.7223   22.7355 H   0  0  0  0  0  0  0  0  0  0  0  0
   20.2282   17.4216   24.0537 C   0  0  0  0  0  0  0  0  0  0  0  0
   20.3675   16.4122   24.4649 H   0  0  0  0  0  0  0  0  0  0  0  0
   21.2379   17.8449   23.9845 H   0  0  0  0  0  0  0  0  0  0  0  0
   19.3590   18.2244   25.0584 C   0  0  0  0  0  0  0  0  0  0  0  0
   19.5819   17.8819   26.0777 H   0  0  0  0  0  0  0  0  0  0  0  0
   18.2979   17.9968   24.8912 H   0  0  0  0  0  0  0  0  0  0  0  0
   19.5682   19.7521   25.0083 C   0  0  0  0  0  0  0  0  0  0  0  0
   19.4206   20.1222   23.9920 H   0  0  0  0  0  0  0  0  0  0  0  0
   18.8329   20.2375   25.6557 H   0  0  0  0  0  0  0  0  0  0  0  0
   20.9429   20.1918   25.4732 N   0  3  0  0  0  0  0  0  0  0  0  0
   21.0499   21.2112   25.4341 H   0  0  0  0  0  0  0  0  0  0  0  0
   21.6873   19.7872   24.8978 H   0  0  0  0  0  0  0  0  0  0  0  0
   21.1231   19.9099   26.4423 H   0  0  0  0  0  0  0  0  0  0  0  0
  1  2  1  0  0  0  0
  1  3  1  0  0  0  0
  1  4  1  0  0  0  0
  1  5  1  0  0  0  0
  5  6  1  0  0  0  0
  5  7  1  0  0  0  0
  5  8  1  0  0  0  0
  8  9  1  0  0  0  0
  8 10  1  0  0  0  0
  8 11  1  0  0  0  0
 11 12  1  0  0  0  0
 11 13  1  0  0  0  0
 11 14  1  0  0  0  0
 14 15  1  0  0  0  0
 14 16  1  0  0  0  0
 14 17  1  0  0  0  0
 17 18  1  0  0  0  0
 17 19  1  0  0  0  0
 17 20  1  0  0  0  0
 20 21  1  0  0  0  0
 20 22  1  0  0  0  0
 20 23  1  0  0  0  0
 23 24  1  0  0  0  0
 23 25  1  0  0  0  0
 23 26  1  0  0  0  0
M  END
> <VM2 Rank>
165

> <Conf_Id>
703

> <Probability>
0.00

> <Sum Probability>
99.97

> <Delta G>
4.534

> <G>
52.795

> <E>
19.343

> <-TS>
33.452

> <U+W>
-2.119

> <U>
52.359

> <W>
-54.478

> <W(PB)>
-56.700

> <W(SA)>
2.222

> <Valence>
5.321

> <Coulomb>
46.894

> <VdW>
0.144

> <VdW6>
-9.549

> <VdW12>
9.693

> <Bond>
0.274

> <Angle>
1.814

> <Pdih>
3.233

> <Idih>
0.000

> <Tether>
0.000

$$$$
VeraChem MOL file


 26 25  0  0  0  0  0  0  0  0999 V2000     
   21.1222   19.8808   20.8303 C   0  0  0  0  0  0  0  0  0  0  0  0
   22.1993   20.0500   20.7038 H   0  0  0  0  0  0  0  0  0  0  0  0
   20.6326   20.1074   19.8744 H   0  0  0  0  0  0  0  0  0  0  0  0
   20.7594   20.5971   21.5770 H   0  0  0  0  0  0  0  0  0  0  0  0
   20.8500   18.4205   21.2580 C   0  0  0  0  0  0  0  0  0  0  0  0
   21.3601   18.1982   22.2036 H   0  0  0  0  0  0  0  0  0  0  0  0
   21.3005   17.7490   20.5138 H   0  0  0  0  0  0  0  0  0  0  0  0
   19.3427   18.0852   21.3705 C   0  0  0  0  0  0  0  0  0  0  0  0
   18.8788   18.2290   20.3850 H   0  0  0  0  0  0  0  0  0  0  0  0
   19.2351   17.0152   21.5953 H   0  0  0  0  0  0  0  0  0  0  0  0
   18.5376   18.9013   22.4178 C   0  0  0  0  0  0  0  0  0  0  0  0
   17.4852   18.6004   22.3213 H   0  0  0  0  0  0  0  0  0  0  0  0
   18.5544   19.9716   22.1737 H   0  0  0  0  0  0  0  0  0  0  0  0
   18.9615   18.6695   23.8922 C   0  0  0  0  0  0  0  0  0  0  0  0
   18.0626   18.7299   24.5214 H   0  0  0  0  0  0  0  0  0  0  0  0
   19.3475   17.6486   24.0120 H   0  0  0  0  0  0  0  0  0  0  0  0
   19.9833   19.7085   24.4197 C   0  0  0  0  0  0  0  0  0  0  0  0
   19.5790   20.7191   24.2751 H   0  0  0  0  0  0  0  0  0  0  0  0
   20.9184   19.6645   23.8512 H   0  0  0  0  0  0  0  0  0  0  0  0
   20.2957   19.5219   25.9167 C   0  0  0  0  0  0  0  0  0  0  0  0
   20.9470   20.3322   26.2555 H   0  0  0  0  0  0  0  0  0  0  0  0
   19.3685   19.5654   26.4945 H   0  0  0  0  0  0  0  0  0  0  0  0
   20.9880   18.2114   26.2358 N   0  3  0  0  0  0  0  0  0  0  0  0
   21.8812   18.1222   25.7408 H   0  0  0  0  0  0  0  0  0  0  0  0
   20.4132   17.4050   25.9728 H   0  0  0  0  0  0  0  0  0  0  0  0
   21.1903   18.1221   27.2375 H   0  0  0  0  0  0  0  0  0  0  0  0
  1  2  1  0  0  0  0
  1  3  1  0  0  0  0
  1  4  1  0  0  0  0
  1  5  1  0  0  0  0
  5  6  1  0  0  0  0
  5  7  1  0  0  0  0
  5  8  1  0  0  0  0
  8  9  1  0  0  0  0
  8 10  1  0  0  0  0
  8 11  1  0  0  0  0
 11 12  1  0  0  0  0
 11 13  1  0  0  0  0
 11 14  1  0  0  0  0
 14 15  1  0  0  0  0
 14 16  1  0  0  0  0
 14 17  1  0  0  0  0
 17 18  1  0  0  0  0
 17 19  1  0  0  0  0
 17 20  1  0  0  0  0
 20 21  1  0  0  0  0
 20 22  1  0  0  0  0
 20 23  1  0  0  0  0
 23 24  1  0  0  0  0
 23 25  1  0  0  0  0
 23 26  1  0  0  0  0
M  END
> <VM2 Rank>
166

> <Conf_Id>
749

> <Probability>
0.00

> <Sum Probability>
99.98

> <Delta G>
4.545

> <G>
52.806

> <E>
19.544

> <-TS>
33.262

> <U+W>
-1.917

> <U>
52.271

> <W>
-54.189

> <W(PB)>
-56.407

> <W(SA)>
2.218

> <Valence>
5.856

> <Coulomb>
45.879

> <VdW>
0.537

> <VdW6>
-9.012

> <VdW12>
9.549

> <Bond>
0.284

> <Angle>
1.818

> <Pdih>
3.754

> <Idih>
0.000

> <Tether>
0.000

$$$$
VeraChem MOL file


 26 25  0  0  0  0  0  0  0  0999 V2000     
   19.0192   19.4847   20.0013 C   0  0  0  0  0  0  0  0  0  0  0  0
   18.6937   18.5544   19.5178 H   0  0  0  0  0  0  0  0  0  0  0  0
   18.1478   19.9391   20.4906 H   0  0  0  0  0  0  0  0  0  0  0  0
   19.3603   20.1711   19.2154 H   0  0  0  0  0  0  0  0  0  0  0  0
   20.1488   19.2164   21.0181 C   0  0  0  0  0  0  0  0  0  0  0  0
   20.4738   20.1721   21.4504 H   0  0  0  0  0  0  0  0  0  0  0  0
   21.0168   18.7912   20.4952 H   0  0  0  0  0  0  0  0  0  0  0  0
   19.6907   18.2534   22.1383 C   0  0  0  0  0  0  0  0  0  0  0  0
   18.8454   18.6969   22.6789 H   0  0  0  0  0  0  0  0  0  0  0  0
   19.3070   17.3316   21.6796 H   0  0  0  0  0  0  0  0  0  0  0  0
   20.8239   17.8726   23.1264 C   0  0  0  0  0  0  0  0  0  0  0  0
   21.6178   17.3594   22.5664 H   0  0  0  0  0  0  0  0  0  0  0  0
   20.4516   17.1284   23.8411 H   0  0  0  0  0  0  0  0  0  0  0  0
   21.4599   19.0604   23.8969 C   0  0  0  0  0  0  0  0  0  0  0  0
   22.2329   18.6662   24.5710 H   0  0  0  0  0  0  0  0  0  0  0  0
   21.9963   19.7014   23.1847 H   0  0  0  0  0  0  0  0  0  0  0  0
   20.4841   19.9429   24.7203 C   0  0  0  0  0  0  0  0  0  0  0  0
   19.7210   20.3948   24.0740 H   0  0  0  0  0  0  0  0  0  0  0  0
   21.0605   20.7836   25.1285 H   0  0  0  0  0  0  0  0  0  0  0  0
   19.8194   19.2176   25.9089 C   0  0  0  0  0  0  0  0  0  0  0  0
   20.5571   18.5919   26.4182 H   0  0  0  0  0  0  0  0  0  0  0  0
   19.4559   19.9616   26.6229 H   0  0  0  0  0  0  0  0  0  0  0  0
   18.6350   18.3510   25.5308 N   0  3  0  0  0  0  0  0  0  0  0  0
   18.2413   17.8688   26.3463 H   0  0  0  0  0  0  0  0  0  0  0  0
   18.8965   17.6331   24.8491 H   0  0  0  0  0  0  0  0  0  0  0  0
   17.8781   18.9042   25.1164 H   0  0  0  0  0  0  0  0  0  0  0  0
  1  2  1  0  0  0  0
  1  3  1  0  0  0  0
  1  4  1  0  0  0  0
  1  5  1  0  0  0  0
  5  6  1  0  0  0  0
  5  7  1  0  0  0  0
  5  8  1  0  0  0  0
  8  9  1  0  0  0  0
  8 10  1  0  0  0  0
  8 11  1  0  0  0  0
 11 12  1  0  0  0  0
 11 13  1  0  0  0  0
 11 14  1  0  0  0  0
 14 15  1  0  0  0  0
 14 16  1  0  0  0  0
 14 17  1  0  0  0  0
 17 18  1  0  0  0  0
 17 19  1  0  0  0  0
 17 20  1  0  0  0  0
 20 21  1  0  0  0  0
 20 22  1  0  0  0  0
 20 23  1  0  0  0  0
 23 24  1  0  0  0  0
 23 25  1  0  0  0  0
 23 26  1  0  0  0  0
M  END
> <VM2 Rank>
167

> <Conf_Id>
552

> <Probability>
0.00

> <Sum Probability>
99.98

> <Delta G>
4.588

> <G>
52.849

> <E>
19.528

> <-TS>
33.322

> <U+W>
-1.934

> <U>
52.118

> <W>
-54.052

> <W(PB)>
-56.271

> <W(SA)>
2.219

> <Valence>
4.669

> <Coulomb>
47.148

> <VdW>
0.301

> <VdW6>
-9.413

> <VdW12>
9.714

> <Bond>
0.278

> <Angle>
1.801

> <Pdih>
2.590

> <Idih>
0.000

> <Tether>
0.000

$$$$
VeraChem MOL file


 26 25  0  0  0  0  0  0  0  0999 V2000     
   20.0724   20.0059   20.3966 C   0  0  0  0  0  0  0  0  0  0  0  0
   19.3221   20.5970   20.9374 H   0  0  0  0  0  0  0  0  0  0  0  0
   21.0675   20.2662   20.7756 H   0  0  0  0  0  0  0  0  0  0  0  0
   20.0401   20.3054   19.3411 H   0  0  0  0  0  0  0  0  0  0  0  0
   19.7996   18.4927   20.5346 C   0  0  0  0  0  0  0  0  0  0  0  0
   20.6380   17.9288   20.1026 H   0  0  0  0  0  0  0  0  0  0  0  0
   18.9200   18.2411   19.9257 H   0  0  0  0  0  0  0  0  0  0  0  0
   19.5370   18.0122   21.9849 C   0  0  0  0  0  0  0  0  0  0  0  0
   18.6396   18.4988   22.3849 H   0  0  0  0  0  0  0  0  0  0  0  0
   19.2829   16.9447   21.9288 H   0  0  0  0  0  0  0  0  0  0  0  0
   20.7371   18.1571   22.9614 C   0  0  0  0  0  0  0  0  0  0  0  0
   21.6716   17.9616   22.4179 H   0  0  0  0  0  0  0  0  0  0  0  0
   20.6689   17.3569   23.7102 H   0  0  0  0  0  0  0  0  0  0  0  0
   20.8531   19.5162   23.7079 C   0  0  0  0  0  0  0  0  0  0  0  0
   21.7419   19.4804   24.3521 H   0  0  0  0  0  0  0  0  0  0  0  0
   21.0495   20.3245   22.9955 H   0  0  0  0  0  0  0  0  0  0  0  0
   19.6247   19.9059   24.5723 C   0  0  0  0  0  0  0  0  0  0  0  0
   18.7738   20.1444   23.9223 H   0  0  0  0  0  0  0  0  0  0  0  0
   19.8489   20.8322   25.1177 H   0  0  0  0  0  0  0  0  0  0  0  0
   19.1949   18.8209   25.5797 C   0  0  0  0  0  0  0  0  0  0  0  0
   18.3072   19.1585   26.1214 H   0  0  0  0  0  0  0  0  0  0  0  0
   18.9384   17.9025   25.0453 H   0  0  0  0  0  0  0  0  0  0  0  0
   20.2621   18.4882   26.6035 N   0  3  0  0  0  0  0  0  0  0  0  0
   20.5217   19.3078   27.1618 H   0  0  0  0  0  0  0  0  0  0  0  0
   21.1172   18.1421   26.1577 H   0  0  0  0  0  0  0  0  0  0  0  0
   19.9489   17.7650   27.2599 H   0  0  0  0  0  0  0  0  0  0  0  0
  1  2  1  0  0  0  0
  1  3  1  0  0  0  0
  1  4  1  0  0  0  0
  1  5  1  0  0  0  0
  5  6  1  0  0  0  0
  5  7  1  0  0  0  0
  5  8  1  0  0  0  0
  8  9  1  0  0  0  0
  8 10  1  0  0  0  0
  8 11  1  0  0  0  0
 11 12  1  0  0  0  0
 11 13  1  0  0  0  0
 11 14  1  0  0  0  0
 14 15  1  0  0  0  0
 14 16  1  0  0  0  0
 14 17  1  0  0  0  0
 17 18  1  0  0  0  0
 17 19  1  0  0  0  0
 17 20  1  0  0  0  0
 20 21  1  0  0  0  0
 20 22  1  0  0  0  0
 20 23  1  0  0  0  0
 23 24  1  0  0  0  0
 23 25  1  0  0  0  0
 23 26  1  0  0  0  0
M  END
> <VM2 Rank>
168

> <Conf_Id>
555

> <Probability>
0.00

> <Sum Probability>
99.98

> <Delta G>
4.598

> <G>
52.859

> <E>
20.200

> <-TS>
32.660

> <U+W>
-1.262

> <U>
52.795

> <W>
-54.057

> <W(PB)>
-56.269

> <W(SA)>
2.212

> <Valence>
6.281

> <Coulomb>
45.824

> <VdW>
0.690

> <VdW6>
-9.607

> <VdW12>
10.297

> <Bond>
0.350

> <Angle>
2.357

> <Pdih>
3.574

> <Idih>
0.000

> <Tether>
0.000

$$$$
VeraChem MOL file


 26 25  0  0  0  0  0  0  0  0999 V2000     
   20.3038   20.6304   21.5476 C   0  0  0  0  0  0  0  0  0  0  0  0
   20.5926   20.5661   22.6012 H   0  0  0  0  0  0  0  0  0  0  0  0
   20.9665   21.3632   21.0693 H   0  0  0  0  0  0  0  0  0  0  0  0
   19.2807   21.0249   21.4974 H   0  0  0  0  0  0  0  0  0  0  0  0
   20.4064   19.2640   20.8311 C   0  0  0  0  0  0  0  0  0  0  0  0
   21.4393   18.8911   20.8678 H   0  0  0  0  0  0  0  0  0  0  0  0
   20.1821   19.4258   19.7674 H   0  0  0  0  0  0  0  0  0  0  0  0
   19.4269   18.1934   21.3787 C   0  0  0  0  0  0  0  0  0  0  0  0
   18.4970   18.6635   21.7244 H   0  0  0  0  0  0  0  0  0  0  0  0
   19.1296   17.5521   20.5374 H   0  0  0  0  0  0  0  0  0  0  0  0
   20.0167   17.2635   22.4737 C   0  0  0  0  0  0  0  0  0  0  0  0
   20.8940   16.7452   22.0629 H   0  0  0  0  0  0  0  0  0  0  0  0
   19.2835   16.4753   22.6936 H   0  0  0  0  0  0  0  0  0  0  0  0
   20.4210   17.9465   23.8036 C   0  0  0  0  0  0  0  0  0  0  0  0
   20.8488   17.1817   24.4666 H   0  0  0  0  0  0  0  0  0  0  0  0
   21.2278   18.6655   23.6187 H   0  0  0  0  0  0  0  0  0  0  0  0
   19.2341   18.6262   24.5311 C   0  0  0  0  0  0  0  0  0  0  0  0
   18.4253   17.8956   24.6643 H   0  0  0  0  0  0  0  0  0  0  0  0
   18.8219   19.4403   23.9224 H   0  0  0  0  0  0  0  0  0  0  0  0
   19.6258   19.1775   25.9154 C   0  0  0  0  0  0  0  0  0  0  0  0
   18.7349   19.5652   26.4170 H   0  0  0  0  0  0  0  0  0  0  0  0
   20.0389   18.3721   26.5285 H   0  0  0  0  0  0  0  0  0  0  0  0
   20.6463   20.2974   25.8600 N   0  3  0  0  0  0  0  0  0  0  0  0
   20.8792   20.6449   26.7966 H   0  0  0  0  0  0  0  0  0  0  0  0
   20.3035   21.0985   25.3203 H   0  0  0  0  0  0  0  0  0  0  0  0
   21.5231   19.9901   25.4279 H   0  0  0  0  0  0  0  0  0  0  0  0
  1  2  1  0  0  0  0
  1  3  1  0  0  0  0
  1  4  1  0  0  0  0
  1  5  1  0  0  0  0
  5  6  1  0  0  0  0
  5  7  1  0  0  0  0
  5  8  1  0  0  0  0
  8  9  1  0  0  0  0
  8 10  1  0  0  0  0
  8 11  1  0  0  0  0
 11 12  1  0  0  0  0
 11 13  1  0  0  0  0
 11 14  1  0  0  0  0
 14 15  1  0  0  0  0
 14 16  1  0  0  0  0
 14 17  1  0  0  0  0
 17 18  1  0  0  0  0
 17 19  1  0  0  0  0
 17 20  1  0  0  0  0
 20 21  1  0  0  0  0
 20 22  1  0  0  0  0
 20 23  1  0  0  0  0
 23 24  1  0  0  0  0
 23 25  1  0  0  0  0
 23 26  1  0  0  0  0
M  END
> <VM2 Rank>
169

> <Conf_Id>
965

> <Probability>
0.00

> <Sum Probability>
99.99

> <Delta G>
4.818

> <G>
53.079

> <E>
19.768

> <-TS>
33.311

> <U+W>
-1.694

> <U>
52.675

> <W>
-54.369

> <W(PB)>
-56.548

> <W(SA)>
2.179

> <Valence>
5.835

> <Coulomb>
46.483

> <VdW>
0.357

> <VdW6>
-9.272

> <VdW12>
9.629

> <Bond>
0.284

> <Angle>
1.858

> <Pdih>
3.694

> <Idih>
0.000

> <Tether>
0.000

$$$$
VeraChem MOL file


 26 25  0  0  0  0  0  0  0  0999 V2000     
   18.4088   19.3788   21.4846 C   0  0  0  0  0  0  0  0  0  0  0  0
   18.3061   19.0557   22.5252 H   0  0  0  0  0  0  0  0  0  0  0  0
   18.4491   20.4756   21.4700 H   0  0  0  0  0  0  0  0  0  0  0  0
   17.4981   19.0724   20.9539 H   0  0  0  0  0  0  0  0  0  0  0  0
   19.6577   18.7695   20.8063 C   0  0  0  0  0  0  0  0  0  0  0  0
   19.6461   19.0718   19.7497 H   0  0  0  0  0  0  0  0  0  0  0  0
   19.5944   17.6725   20.8064 H   0  0  0  0  0  0  0  0  0  0  0  0
   20.9996   19.2322   21.4312 C   0  0  0  0  0  0  0  0  0  0  0  0
   21.7444   19.2793   20.6247 H   0  0  0  0  0  0  0  0  0  0  0  0
   20.9155   20.2610   21.8052 H   0  0  0  0  0  0  0  0  0  0  0  0
   21.5726   18.2913   22.5256 C   0  0  0  0  0  0  0  0  0  0  0  0
   22.5737   18.6487   22.8035 H   0  0  0  0  0  0  0  0  0  0  0  0
   21.7248   17.2939   22.0906 H   0  0  0  0  0  0  0  0  0  0  0  0
   20.7250   18.1471   23.8137 C   0  0  0  0  0  0  0  0  0  0  0  0
   19.7571   17.6937   23.5696 H   0  0  0  0  0  0  0  0  0  0  0  0
   21.2297   17.4331   24.4792 H   0  0  0  0  0  0  0  0  0  0  0  0
   20.5309   19.4826   24.5745 C   0  0  0  0  0  0  0  0  0  0  0  0
   19.9725   20.2001   23.9608 H   0  0  0  0  0  0  0  0  0  0  0  0
   21.5127   19.9347   24.7677 H   0  0  0  0  0  0  0  0  0  0  0  0
   19.8063   19.2967   25.9213 C   0  0  0  0  0  0  0  0  0  0  0  0
   20.3560   18.5815   26.5390 H   0  0  0  0  0  0  0  0  0  0  0  0
   19.7754   20.2523   26.4518 H   0  0  0  0  0  0  0  0  0  0  0  0
   18.3801   18.8008   25.7838 N   0  3  0  0  0  0  0  0  0  0  0  0
   17.9258   18.6945   26.6974 H   0  0  0  0  0  0  0  0  0  0  0  0
   18.3394   17.8876   25.3208 H   0  0  0  0  0  0  0  0  0  0  0  0
   17.8034   19.4474   25.2363 H   0  0  0  0  0  0  0  0  0  0  0  0
  1  2  1  0  0  0  0
  1  3  1  0  0  0  0
  1  4  1  0  0  0  0
  1  5  1  0  0  0  0
  5  6  1  0  0  0  0
  5  7  1  0  0  0  0
  5  8  1  0  0  0  0
  8  9  1  0  0  0  0
  8 10  1  0  0  0  0
  8 11  1  0  0  0  0
 11 12  1  0  0  0  0
 11 13  1  0  0  0  0
 11 14  1  0  0  0  0
 14 15  1  0  0  0  0
 14 16  1  0  0  0  0
 14 17  1  0  0  0  0
 17 18  1  0  0  0  0
 17 19  1  0  0  0  0
 17 20  1  0  0  0  0
 20 21  1  0  0  0  0
 20 22  1  0  0  0  0
 20 23  1  0  0  0  0
 23 24  1  0  0  0  0
 23 25  1  0  0  0  0
 23 26  1  0  0  0  0
M  END
> <VM2 Rank>
170

> <Conf_Id>
407

> <Probability>
0.00

> <Sum Probability>
99.99

> <Delta G>
4.910

> <G>
53.171

> <E>
19.860

> <-TS>
33.311

> <U+W>
-1.602

> <U>
52.676

> <W>
-54.278

> <W(PB)>
-56.460

> <W(SA)>
2.182

> <Valence>
5.835

> <Coulomb>
46.484

> <VdW>
0.357

> <VdW6>
-9.273

> <VdW12>
9.630

> <Bond>
0.284

> <Angle>
1.858

> <Pdih>
3.694

> <Idih>
0.000

> <Tether>
0.000

$$$$
VeraChem MOL file


 26 25  0  0  0  0  0  0  0  0999 V2000     
   18.9522   19.6106   20.6351 C   0  0  0  0  0  0  0  0  0  0  0  0
   18.4833   19.4966   19.6492 H   0  0  0  0  0  0  0  0  0  0  0  0
   18.2748   19.1670   21.3719 H   0  0  0  0  0  0  0  0  0  0  0  0
   19.0291   20.6854   20.8443 H   0  0  0  0  0  0  0  0  0  0  0  0
   20.3461   18.9419   20.6478 C   0  0  0  0  0  0  0  0  0  0  0  0
   20.9297   19.3700   19.8207 H   0  0  0  0  0  0  0  0  0  0  0  0
   20.2554   17.8691   20.4283 H   0  0  0  0  0  0  0  0  0  0  0  0
   21.1383   19.1577   21.9637 C   0  0  0  0  0  0  0  0  0  0  0  0
   22.2063   19.1843   21.7067 H   0  0  0  0  0  0  0  0  0  0  0  0
   20.9195   20.1464   22.3876 H   0  0  0  0  0  0  0  0  0  0  0  0
   20.9558   18.0444   23.0305 C   0  0  0  0  0  0  0  0  0  0  0  0
   21.6875   18.2082   23.8328 H   0  0  0  0  0  0  0  0  0  0  0  0
   21.2270   17.0781   22.5837 H   0  0  0  0  0  0  0  0  0  0  0  0
   19.5419   17.9223   23.6557 C   0  0  0  0  0  0  0  0  0  0  0  0
   18.8264   17.6092   22.8854 H   0  0  0  0  0  0  0  0  0  0  0  0
   19.5525   17.1015   24.3851 H   0  0  0  0  0  0  0  0  0  0  0  0
   19.0255   19.2097   24.3510 C   0  0  0  0  0  0  0  0  0  0  0  0
   18.0350   19.0147   24.7827 H   0  0  0  0  0  0  0  0  0  0  0  0
   18.8780   20.0011   23.6060 H   0  0  0  0  0  0  0  0  0  0  0  0
   19.9613   19.7414   25.4549 C   0  0  0  0  0  0  0  0  0  0  0  0
   20.9420   19.9686   25.0288 H   0  0  0  0  0  0  0  0  0  0  0  0
   19.5477   20.6653   25.8681 H   0  0  0  0  0  0  0  0  0  0  0  0
   20.1598   18.7709   26.6023 N   0  3  0  0  0  0  0  0  0  0  0  0
   20.7829   19.1532   27.3218 H   0  0  0  0  0  0  0  0  0  0  0  0
   20.5724   17.8891   26.2830 H   0  0  0  0  0  0  0  0  0  0  0  0
   19.2737   18.5417   27.0637 H   0  0  0  0  0  0  0  0  0  0  0  0
  1  2  1  0  0  0  0
  1  3  1  0  0  0  0
  1  4  1  0  0  0  0
  1  5  1  0  0  0  0
  5  6  1  0  0  0  0
  5  7  1  0  0  0  0
  5  8  1  0  0  0  0
  8  9  1  0  0  0  0
  8 10  1  0  0  0  0
  8 11  1  0  0  0  0
 11 12  1  0  0  0  0
 11 13  1  0  0  0  0
 11 14  1  0  0  0  0
 14 15  1  0  0  0  0
 14 16  1  0  0  0  0
 14 17  1  0  0  0  0
 17 18  1  0  0  0  0
 17 19  1  0  0  0  0
 17 20  1  0  0  0  0
 20 21  1  0  0  0  0
 20 22  1  0  0  0  0
 20 23  1  0  0  0  0
 23 24  1  0  0  0  0
 23 25  1  0  0  0  0
 23 26  1  0  0  0  0
M  END
> <VM2 Rank>
171

> <Conf_Id>
276

> <Probability>
0.00

> <Sum Probability>
99.99

> <Delta G>
4.949

> <G>
53.211

> <E>
19.693

> <-TS>
33.518

> <U+W>
-1.769

> <U>
52.331

> <W>
-54.099

> <W(PB)>
-56.293

> <W(SA)>
2.194

> <Valence>
6.095

> <Coulomb>
45.826

> <VdW>
0.409

> <VdW6>
-9.963

> <VdW12>
10.373

> <Bond>
0.316

> <Angle>
2.141

> <Pdih>
3.639

> <Idih>
0.000

> <Tether>
0.000

$$$$
VeraChem MOL file


 26 25  0  0  0  0  0  0  0  0999 V2000     
   19.2236   18.1501   20.5329 C   0  0  0  0  0  0  0  0  0  0  0  0
   18.2775   17.6694   20.2524 H   0  0  0  0  0  0  0  0  0  0  0  0
   19.6341   18.6327   19.6365 H   0  0  0  0  0  0  0  0  0  0  0  0
   19.9164   17.3590   20.8456 H   0  0  0  0  0  0  0  0  0  0  0  0
   18.9940   19.1798   21.6619 C   0  0  0  0  0  0  0  0  0  0  0  0
   18.5997   18.6691   22.5485 H   0  0  0  0  0  0  0  0  0  0  0  0
   18.2108   19.8828   21.3455 H   0  0  0  0  0  0  0  0  0  0  0  0
   20.2658   19.9883   22.0243 C   0  0  0  0  0  0  0  0  0  0  0  0
   20.5816   20.5569   21.1389 H   0  0  0  0  0  0  0  0  0  0  0  0
   20.0165   20.7449   22.7787 H   0  0  0  0  0  0  0  0  0  0  0  0
   21.4696   19.1424   22.5161 C   0  0  0  0  0  0  0  0  0  0  0  0
   22.3092   19.8191   22.7259 H   0  0  0  0  0  0  0  0  0  0  0  0
   21.8144   18.5016   21.6937 H   0  0  0  0  0  0  0  0  0  0  0  0
   21.2200   18.2544   23.7650 C   0  0  0  0  0  0  0  0  0  0  0  0
   20.4332   17.5168   23.5639 H   0  0  0  0  0  0  0  0  0  0  0  0
   22.1323   17.6649   23.9302 H   0  0  0  0  0  0  0  0  0  0  0  0
   20.9256   19.0396   25.0712 C   0  0  0  0  0  0  0  0  0  0  0  0
   21.5408   19.9486   25.1008 H   0  0  0  0  0  0  0  0  0  0  0  0
   21.2433   18.4348   25.9310 H   0  0  0  0  0  0  0  0  0  0  0  0
   19.4445   19.4194   25.2724 C   0  0  0  0  0  0  0  0  0  0  0  0
   19.3550   20.0678   26.1482 H   0  0  0  0  0  0  0  0  0  0  0  0
   19.0732   19.9691   24.4056 H   0  0  0  0  0  0  0  0  0  0  0  0
   18.5379   18.2249   25.4973 N   0  3  0  0  0  0  0  0  0  0  0  0
   18.8121   17.6931   26.3298 H   0  0  0  0  0  0  0  0  0  0  0  0
   18.5585   17.5765   24.7047 H   0  0  0  0  0  0  0  0  0  0  0  0
   17.5613   18.5081   25.6326 H   0  0  0  0  0  0  0  0  0  0  0  0
  1  2  1  0  0  0  0
  1  3  1  0  0  0  0
  1  4  1  0  0  0  0
  1  5  1  0  0  0  0
  5  6  1  0  0  0  0
  5  7  1  0  0  0  0
  5  8  1  0  0  0  0
  8  9  1  0  0  0  0
  8 10  1  0  0  0  0
  8 11  1  0  0  0  0
 11 12  1  0  0  0  0
 11 13  1  0  0  0  0
 11 14  1  0  0  0  0
 14 15  1  0  0  0  0
 14 16  1  0  0  0  0
 14 17  1  0  0  0  0
 17 18  1  0  0  0  0
 17 19  1  0  0  0  0
 17 20  1  0  0  0  0
 20 21  1  0  0  0  0
 20 22  1  0  0  0  0
 20 23  1  0  0  0  0
 23 24  1  0  0  0  0
 23 25  1  0  0  0  0
 23 26  1  0  0  0  0
M  END
> <VM2 Rank>
172

> <Conf_Id>
566

> <Probability>
0.00

> <Sum Probability>
99.99

> <Delta G>
5.091

> <G>
53.353

> <E>
19.657

> <-TS>
33.695

> <U+W>
-1.804

> <U>
52.878

> <W>
-54.683

> <W(PB)>
-56.876

> <W(SA)>
2.193

> <Valence>
5.780

> <Coulomb>
46.918

> <VdW>
0.181

> <VdW6>
-10.252

> <VdW12>
10.433

> <Bond>
0.311

> <Angle>
2.153

> <Pdih>
3.315

> <Idih>
0.000

> <Tether>
0.000

$$$$
VeraChem MOL file


 26 25  0  0  0  0  0  0  0  0999 V2000     
   20.0200   19.2307   19.9832 C   0  0  0  0  0  0  0  0  0  0  0  0
   20.6835   19.6268   19.2037 H   0  0  0  0  0  0  0  0  0  0  0  0
   19.3792   18.4674   19.5233 H   0  0  0  0  0  0  0  0  0  0  0  0
   19.3820   20.0554   20.3243 H   0  0  0  0  0  0  0  0  0  0  0  0
   20.8459   18.6352   21.1458 C   0  0  0  0  0  0  0  0  0  0  0  0
   21.4651   19.4201   21.6003 H   0  0  0  0  0  0  0  0  0  0  0  0
   21.5487   17.8959   20.7372 H   0  0  0  0  0  0  0  0  0  0  0  0
   19.9771   17.9449   22.2277 C   0  0  0  0  0  0  0  0  0  0  0  0
   19.4400   17.1049   21.7661 H   0  0  0  0  0  0  0  0  0  0  0  0
   20.6410   17.4949   22.9764 H   0  0  0  0  0  0  0  0  0  0  0  0
   18.9444   18.8678   22.9300 C   0  0  0  0  0  0  0  0  0  0  0  0
   18.3721   18.2838   23.6607 H   0  0  0  0  0  0  0  0  0  0  0  0
   18.2011   19.1981   22.1924 H   0  0  0  0  0  0  0  0  0  0  0  0
   19.5421   20.1222   23.6212 C   0  0  0  0  0  0  0  0  0  0  0  0
   19.9603   20.7862   22.8531 H   0  0  0  0  0  0  0  0  0  0  0  0
   18.7237   20.6912   24.0833 H   0  0  0  0  0  0  0  0  0  0  0  0
   20.6325   19.8568   24.6933 C   0  0  0  0  0  0  0  0  0  0  0  0
   21.0238   20.8302   25.0173 H   0  0  0  0  0  0  0  0  0  0  0  0
   21.4885   19.3236   24.2608 H   0  0  0  0  0  0  0  0  0  0  0  0
   20.1231   19.1215   25.9504 C   0  0  0  0  0  0  0  0  0  0  0  0
   20.8212   19.2962   26.7735 H   0  0  0  0  0  0  0  0  0  0  0  0
   19.1486   19.5218   26.2424 H   0  0  0  0  0  0  0  0  0  0  0  0
   19.9959   17.6199   25.7892 N   0  3  0  0  0  0  0  0  0  0  0  0
   19.6322   17.1759   26.6395 H   0  0  0  0  0  0  0  0  0  0  0  0
   20.9008   17.1829   25.5873 H   0  0  0  0  0  0  0  0  0  0  0  0
   19.3618   17.3760   25.0231 H   0  0  0  0  0  0  0  0  0  0  0  0
  1  2  1  0  0  0  0
  1  3  1  0  0  0  0
  1  4  1  0  0  0  0
  1  5  1  0  0  0  0
  5  6  1  0  0  0  0
  5  7  1  0  0  0  0
  5  8  1  0  0  0  0
  8  9  1  0  0  0  0
  8 10  1  0  0  0  0
  8 11  1  0  0  0  0
 11 12  1  0  0  0  0
 11 13  1  0  0  0  0
 11 14  1  0  0  0  0
 14 15  1  0  0  0  0
 14 16  1  0  0  0  0
 14 17  1  0  0  0  0
 17 18  1  0  0  0  0
 17 19  1  0  0  0  0
 17 20  1  0  0  0  0
 20 21  1  0  0  0  0
 20 22  1  0  0  0  0
 20 23  1  0  0  0  0
 23 24  1  0  0  0  0
 23 25  1  0  0  0  0
 23 26  1  0  0  0  0
M  END
> <VM2 Rank>
173

> <Conf_Id>
845

> <Probability>
0.00

> <Sum Probability>
99.99

> <Delta G>
5.139

> <G>
53.401

> <E>
19.774

> <-TS>
33.626

> <U+W>
-1.687

> <U>
52.543

> <W>
-54.230

> <W(PB)>
-56.419

> <W(SA)>
2.189

> <Valence>
5.103

> <Coulomb>
47.136

> <VdW>
0.304

> <VdW6>
-10.241

> <VdW12>
10.545

> <Bond>
0.320

> <Angle>
2.105

> <Pdih>
2.678

> <Idih>
0.000

> <Tether>
0.000

$$$$
VeraChem MOL file


 26 25  0  0  0  0  0  0  0  0999 V2000     
   19.8793   19.1382   19.9786 C   0  0  0  0  0  0  0  0  0  0  0  0
   19.3575   20.0394   20.3237 H   0  0  0  0  0  0  0  0  0  0  0  0
   20.8538   19.4389   19.5725 H   0  0  0  0  0  0  0  0  0  0  0  0
   19.2907   18.7095   19.1573 H   0  0  0  0  0  0  0  0  0  0  0  0
   20.0468   18.1089   21.1192 C   0  0  0  0  0  0  0  0  0  0  0  0
   20.4678   17.1840   20.7011 H   0  0  0  0  0  0  0  0  0  0  0  0
   19.0614   17.8368   21.5201 H   0  0  0  0  0  0  0  0  0  0  0  0
   20.9724   18.6004   22.2609 C   0  0  0  0  0  0  0  0  0  0  0  0
   21.0893   17.7901   22.9913 H   0  0  0  0  0  0  0  0  0  0  0  0
   21.9765   18.7756   21.8507 H   0  0  0  0  0  0  0  0  0  0  0  0
   20.4991   19.8918   22.9819 C   0  0  0  0  0  0  0  0  0  0  0  0
   20.5230   20.7274   22.2699 H   0  0  0  0  0  0  0  0  0  0  0  0
   21.2267   20.1639   23.7560 H   0  0  0  0  0  0  0  0  0  0  0  0
   19.0801   19.8179   23.6058 C   0  0  0  0  0  0  0  0  0  0  0  0
   18.8586   20.7800   24.0879 H   0  0  0  0  0  0  0  0  0  0  0  0
   18.3416   19.7202   22.7990 H   0  0  0  0  0  0  0  0  0  0  0  0
   18.8444   18.6789   24.6335 C   0  0  0  0  0  0  0  0  0  0  0  0
   19.0170   17.6957   24.1781 H   0  0  0  0  0  0  0  0  0  0  0  0
   17.7815   18.6946   24.9088 H   0  0  0  0  0  0  0  0  0  0  0  0
   19.6613   18.8173   25.9350 C   0  0  0  0  0  0  0  0  0  0  0  0
   19.6637   19.8611   26.2598 H   0  0  0  0  0  0  0  0  0  0  0  0
   19.1877   18.2200   26.7188 H   0  0  0  0  0  0  0  0  0  0  0  0
   21.0975   18.3456   25.8261 N   0  3  0  0  0  0  0  0  0  0  0  0
   21.6067   18.8551   25.0984 H   0  0  0  0  0  0  0  0  0  0  0  0
   21.1520   17.3484   25.5954 H   0  0  0  0  0  0  0  0  0  0  0  0
   21.6086   18.4777   26.7057 H   0  0  0  0  0  0  0  0  0  0  0  0
  1  2  1  0  0  0  0
  1  3  1  0  0  0  0
  1  4  1  0  0  0  0
  1  5  1  0  0  0  0
  5  6  1  0  0  0  0
  5  7  1  0  0  0  0
  5  8  1  0  0  0  0
  8  9  1  0  0  0  0
  8 10  1  0  0  0  0
  8 11  1  0  0  0  0
 11 12  1  0  0  0  0
 11 13  1  0  0  0  0
 11 14  1  0  0  0  0
 14 15  1  0  0  0  0
 14 16  1  0  0  0  0
 14 17  1  0  0  0  0
 17 18  1  0  0  0  0
 17 19  1  0  0  0  0
 17 20  1  0  0  0  0
 20 21  1  0  0  0  0
 20 22  1  0  0  0  0
 20 23  1  0  0  0  0
 23 24  1  0  0  0  0
 23 25  1  0  0  0  0
 23 26  1  0  0  0  0
M  END
> <VM2 Rank>
174

> <Conf_Id>
175

> <Probability>
0.00

> <Sum Probability>
100.00

> <Delta G>
5.212

> <G>
53.474

> <E>
19.847

> <-TS>
33.626

> <U+W>
-1.615

> <U>
52.543

> <W>
-54.157

> <W(PB)>
-56.334

> <W(SA)>
2.177

> <Valence>
5.103

> <Coulomb>
47.136

> <VdW>
0.304

> <VdW6>
-10.241

> <VdW12>
10.545

> <Bond>
0.320

> <Angle>
2.105

> <Pdih>
2.678

> <Idih>
0.000

> <Tether>
0.000

$$$$
VeraChem MOL file


 26 25  0  0  0  0  0  0  0  0999 V2000     
   20.3750   20.5088   20.4733 C   0  0  0  0  0  0  0  0  0  0  0  0
   19.5891   20.3716   19.7190 H   0  0  0  0  0  0  0  0  0  0  0  0
   20.0867   21.3496   21.1175 H   0  0  0  0  0  0  0  0  0  0  0  0
   21.2988   20.7868   19.9494 H   0  0  0  0  0  0  0  0  0  0  0  0
   20.5828   19.2214   21.2986 C   0  0  0  0  0  0  0  0  0  0  0  0
   21.4053   19.3835   22.0057 H   0  0  0  0  0  0  0  0  0  0  0  0
   20.8978   18.4081   20.6299 H   0  0  0  0  0  0  0  0  0  0  0  0
   19.2908   18.8097   22.0446 C   0  0  0  0  0  0  0  0  0  0  0  0
   18.9653   19.6212   22.7034 H   0  0  0  0  0  0  0  0  0  0  0  0
   18.4867   18.6924   21.3050 H   0  0  0  0  0  0  0  0  0  0  0  0
   19.4175   17.4760   22.8278 C   0  0  0  0  0  0  0  0  0  0  0  0
   19.7121   16.6940   22.1143 H   0  0  0  0  0  0  0  0  0  0  0  0
   18.4269   17.1767   23.1967 H   0  0  0  0  0  0  0  0  0  0  0  0
   20.4271   17.4627   24.0092 C   0  0  0  0  0  0  0  0  0  0  0  0
   20.7179   16.4170   24.1801 H   0  0  0  0  0  0  0  0  0  0  0  0
   21.3591   17.9737   23.7415 H   0  0  0  0  0  0  0  0  0  0  0  0
   19.8762   18.0036   25.3562 C   0  0  0  0  0  0  0  0  0  0  0  0
   20.6294   17.8350   26.1373 H   0  0  0  0  0  0  0  0  0  0  0  0
   18.9992   17.4129   25.6519 H   0  0  0  0  0  0  0  0  0  0  0  0
   19.4902   19.4952   25.3657 C   0  0  0  0  0  0  0  0  0  0  0  0
   18.6505   19.6649   24.6886 H   0  0  0  0  0  0  0  0  0  0  0  0
   19.1698   19.7778   26.3722 H   0  0  0  0  0  0  0  0  0  0  0  0
   20.6213   20.4215   24.9656 N   0  3  0  0  0  0  0  0  0  0  0  0
   20.9399   20.2288   24.0111 H   0  0  0  0  0  0  0  0  0  0  0  0
   21.4311   20.3208   25.5863 H   0  0  0  0  0  0  0  0  0  0  0  0
   20.3370   21.4066   25.0001 H   0  0  0  0  0  0  0  0  0  0  0  0
  1  2  1  0  0  0  0
  1  3  1  0  0  0  0
  1  4  1  0  0  0  0
  1  5  1  0  0  0  0
  5  6  1  0  0  0  0
  5  7  1  0  0  0  0
  5  8  1  0  0  0  0
  8  9  1  0  0  0  0
  8 10  1  0  0  0  0
  8 11  1  0  0  0  0
 11 12  1  0  0  0  0
 11 13  1  0  0  0  0
 11 14  1  0  0  0  0
 14 15  1  0  0  0  0
 14 16  1  0  0  0  0
 14 17  1  0  0  0  0
 17 18  1  0  0  0  0
 17 19  1  0  0  0  0
 17 20  1  0  0  0  0
 20 21  1  0  0  0  0
 20 22  1  0  0  0  0
 20 23  1  0  0  0  0
 23 24  1  0  0  0  0
 23 25  1  0  0  0  0
 23 26  1  0  0  0  0
M  END
> <VM2 Rank>
175

> <Conf_Id>
823

> <Probability>
0.00

> <Sum Probability>
100.00

> <Delta G>
5.669

> <G>
53.930

> <E>
20.676

> <-TS>
33.254

> <U+W>
-0.785

> <U>
52.899

> <W>
-53.685

> <W(PB)>
-55.876

> <W(SA)>
2.192

> <Valence>
5.554

> <Coulomb>
47.031

> <VdW>
0.315

> <VdW6>
-9.413

> <VdW12>
9.728

> <Bond>
0.306

> <Angle>
2.197

> <Pdih>
3.051

> <Idih>
0.000

> <Tether>
0.000

$$$$
VeraChem MOL file


 26 25  0  0  0  0  0  0  0  0999 V2000     
   18.5429   19.2994   20.4121 C   0  0  0  0  0  0  0  0  0  0  0  0
   17.8533   19.8751   21.0430 H   0  0  0  0  0  0  0  0  0  0  0  0
   19.0120   19.9907   19.6999 H   0  0  0  0  0  0  0  0  0  0  0  0
   17.9499   18.5760   19.8374 H   0  0  0  0  0  0  0  0  0  0  0  0
   19.6061   18.5765   21.2659 C   0  0  0  0  0  0  0  0  0  0  0  0
   20.2611   17.9878   20.6085 H   0  0  0  0  0  0  0  0  0  0  0  0
   19.1019   17.8628   21.9286 H   0  0  0  0  0  0  0  0  0  0  0  0
   20.4558   19.5788   22.0835 C   0  0  0  0  0  0  0  0  0  0  0  0
   20.9131   20.2943   21.3861 H   0  0  0  0  0  0  0  0  0  0  0  0
   19.8071   20.1769   22.7315 H   0  0  0  0  0  0  0  0  0  0  0  0
   21.5953   18.9137   22.9006 C   0  0  0  0  0  0  0  0  0  0  0  0
   22.2414   19.6948   23.3242 H   0  0  0  0  0  0  0  0  0  0  0  0
   22.2315   18.3572   22.1985 H   0  0  0  0  0  0  0  0  0  0  0  0
   21.1569   17.9445   24.0336 C   0  0  0  0  0  0  0  0  0  0  0  0
   20.3346   17.2974   23.7072 H   0  0  0  0  0  0  0  0  0  0  0  0
   21.9958   17.2607   24.2228 H   0  0  0  0  0  0  0  0  0  0  0  0
   20.8131   18.6221   25.3875 C   0  0  0  0  0  0  0  0  0  0  0  0
   21.6858   19.1865   25.7417 H   0  0  0  0  0  0  0  0  0  0  0  0
   20.6366   17.8398   26.1375 H   0  0  0  0  0  0  0  0  0  0  0  0
   19.5933   19.5633   25.3692 C   0  0  0  0  0  0  0  0  0  0  0  0
   19.4125   19.9380   26.3803 H   0  0  0  0  0  0  0  0  0  0  0  0
   19.7980   20.4224   24.7269 H   0  0  0  0  0  0  0  0  0  0  0  0
   18.3176   18.9007   24.8887 N   0  3  0  0  0  0  0  0  0  0  0  0
   18.0640   18.0979   25.4739 H   0  0  0  0  0  0  0  0  0  0  0  0
   18.4142   18.5614   23.9268 H   0  0  0  0  0  0  0  0  0  0  0  0
   17.5223   19.5484   24.9061 H   0  0  0  0  0  0  0  0  0  0  0  0
  1  2  1  0  0  0  0
  1  3  1  0  0  0  0
  1  4  1  0  0  0  0
  1  5  1  0  0  0  0
  5  6  1  0  0  0  0
  5  7  1  0  0  0  0
  5  8  1  0  0  0  0
  8  9  1  0  0  0  0
  8 10  1  0  0  0  0
  8 11  1  0  0  0  0
 11 12  1  0  0  0  0
 11 13  1  0  0  0  0
 11 14  1  0  0  0  0
 14 15  1  0  0  0  0
 14 16  1  0  0  0  0
 14 17  1  0  0  0  0
 17 18  1  0  0  0  0
 17 19  1  0  0  0  0
 17 20  1  0  0  0  0
 20 21  1  0  0  0  0
 20 22  1  0  0  0  0
 20 23  1  0  0  0  0
 23 24  1  0  0  0  0
 23 25  1  0  0  0  0
 23 26  1  0  0  0  0
M  END
> <VM2 Rank>
176

> <Conf_Id>
505

> <Probability>
0.00

> <Sum Probability>
100.00

> <Delta G>
5.675

> <G>
53.936

> <E>
20.682

> <-TS>
33.254

> <U+W>
-0.780

> <U>
52.899

> <W>
-53.679

> <W(PB)>
-55.863

> <W(SA)>
2.184

> <Valence>
5.554

> <Coulomb>
47.030

> <VdW>
0.315

> <VdW6>
-9.412

> <VdW12>
9.727

> <Bond>
0.306

> <Angle>
2.197

> <Pdih>
3.051

> <Idih>
0.000

> <Tether>
0.000

$$$$
VeraChem MOL file


 26 25  0  0  0  0  0  0  0  0999 V2000     
   18.3616   18.3861   20.8124 C   0  0  0  0  0  0  0  0  0  0  0  0
   17.9471   17.3912   20.6044 H   0  0  0  0  0  0  0  0  0  0  0  0
   17.6400   18.9277   21.4378 H   0  0  0  0  0  0  0  0  0  0  0  0
   18.4540   18.9192   19.8572 H   0  0  0  0  0  0  0  0  0  0  0  0
   19.7294   18.2700   21.5173 C   0  0  0  0  0  0  0  0  0  0  0  0
   20.4162   17.6919   20.8834 H   0  0  0  0  0  0  0  0  0  0  0  0
   19.6108   17.6966   22.4443 H   0  0  0  0  0  0  0  0  0  0  0  0
   20.3432   19.6614   21.8057 C   0  0  0  0  0  0  0  0  0  0  0  0
   20.5364   20.1521   20.8416 H   0  0  0  0  0  0  0  0  0  0  0  0
   19.6249   20.3064   22.3289 H   0  0  0  0  0  0  0  0  0  0  0  0
   21.6743   19.5907   22.5968 C   0  0  0  0  0  0  0  0  0  0  0  0
   22.3381   20.3765   22.2103 H   0  0  0  0  0  0  0  0  0  0  0  0
   22.1908   18.6438   22.3873 H   0  0  0  0  0  0  0  0  0  0  0  0
   21.5541   19.8023   24.1306 C   0  0  0  0  0  0  0  0  0  0  0  0
   22.5734   19.8135   24.5408 H   0  0  0  0  0  0  0  0  0  0  0  0
   21.1413   20.7987   24.3408 H   0  0  0  0  0  0  0  0  0  0  0  0
   20.7458   18.7252   24.8958 C   0  0  0  0  0  0  0  0  0  0  0  0
   21.0971   18.6997   25.9359 H   0  0  0  0  0  0  0  0  0  0  0  0
   20.9507   17.7313   24.4772 H   0  0  0  0  0  0  0  0  0  0  0  0
   19.2305   19.0056   24.9120 C   0  0  0  0  0  0  0  0  0  0  0  0
   19.0426   19.9743   25.3830 H   0  0  0  0  0  0  0  0  0  0  0  0
   18.8428   19.0419   23.8921 H   0  0  0  0  0  0  0  0  0  0  0  0
   18.4421   17.9576   25.6704 N   0  3  0  0  0  0  0  0  0  0  0  0
   18.7353   17.8954   26.6508 H   0  0  0  0  0  0  0  0  0  0  0  0
   18.5545   17.0242   25.2620 H   0  0  0  0  0  0  0  0  0  0  0  0
   17.4373   18.1644   25.6725 H   0  0  0  0  0  0  0  0  0  0  0  0
  1  2  1  0  0  0  0
  1  3  1  0  0  0  0
  1  4  1  0  0  0  0
  1  5  1  0  0  0  0
  5  6  1  0  0  0  0
  5  7  1  0  0  0  0
  5  8  1  0  0  0  0
  8  9  1  0  0  0  0
  8 10  1  0  0  0  0
  8 11  1  0  0  0  0
 11 12  1  0  0  0  0
 11 13  1  0  0  0  0
 11 14  1  0  0  0  0
 14 15  1  0  0  0  0
 14 16  1  0  0  0  0
 14 17  1  0  0  0  0
 17 18  1  0  0  0  0
 17 19  1  0  0  0  0
 17 20  1  0  0  0  0
 20 21  1  0  0  0  0
 20 22  1  0  0  0  0
 20 23  1  0  0  0  0
 23 24  1  0  0  0  0
 23 25  1  0  0  0  0
 23 26  1  0  0  0  0
M  END
> <VM2 Rank>
177

> <Conf_Id>
564

> <Probability>
0.00

> <Sum Probability>
100.00

> <Delta G>
5.822

> <G>
54.083

> <E>
20.801

> <-TS>
33.283

> <U+W>
-0.661

> <U>
53.727

> <W>
-54.388

> <W(PB)>
-56.588

> <W(SA)>
2.200

> <Valence>
7.057

> <Coulomb>
46.463

> <VdW>
0.207

> <VdW6>
-9.121

> <VdW12>
9.328

> <Bond>
0.248

> <Angle>
1.758

> <Pdih>
5.050

> <Idih>
0.000

> <Tether>
0.000

$$$$
VeraChem MOL file


 26 25  0  0  0  0  0  0  0  0999 V2000     
   20.4169   20.2803   20.7745 C   0  0  0  0  0  0  0  0  0  0  0  0
   19.3489   20.4794   20.6180 H   0  0  0  0  0  0  0  0  0  0  0  0
   20.7005   20.6473   21.7684 H   0  0  0  0  0  0  0  0  0  0  0  0
   20.9800   20.8669   20.0371 H   0  0  0  0  0  0  0  0  0  0  0  0
   20.7325   18.7765   20.6215 C   0  0  0  0  0  0  0  0  0  0  0  0
   21.7893   18.5995   20.8656 H   0  0  0  0  0  0  0  0  0  0  0  0
   20.6141   18.4981   19.5650 H   0  0  0  0  0  0  0  0  0  0  0  0
   19.8372   17.8439   21.4770 C   0  0  0  0  0  0  0  0  0  0  0  0
   18.7892   17.9329   21.1596 H   0  0  0  0  0  0  0  0  0  0  0  0
   20.1270   16.8091   21.2478 H   0  0  0  0  0  0  0  0  0  0  0  0
   19.9582   18.0495   23.0099 C   0  0  0  0  0  0  0  0  0  0  0  0
   20.9690   18.4015   23.2476 H   0  0  0  0  0  0  0  0  0  0  0  0
   19.8421   17.0724   23.4991 H   0  0  0  0  0  0  0  0  0  0  0  0
   18.8898   19.0120   23.5894 C   0  0  0  0  0  0  0  0  0  0  0  0
   19.0318   20.0250   23.1949 H   0  0  0  0  0  0  0  0  0  0  0  0
   17.8985   18.6889   23.2432 H   0  0  0  0  0  0  0  0  0  0  0  0
   18.8573   19.0723   25.1380 C   0  0  0  0  0  0  0  0  0  0  0  0
   18.6580   18.0768   25.5567 H   0  0  0  0  0  0  0  0  0  0  0  0
   18.0045   19.6985   25.4318 H   0  0  0  0  0  0  0  0  0  0  0  0
   20.1238   19.6742   25.7814 C   0  0  0  0  0  0  0  0  0  0  0  0
   20.4772   20.5197   25.1852 H   0  0  0  0  0  0  0  0  0  0  0  0
   19.8738   20.0441   26.7795 H   0  0  0  0  0  0  0  0  0  0  0  0
   21.2653   18.6904   25.9492 N   0  3  0  0  0  0  0  0  0  0  0  0
   21.5674   18.3016   25.0518 H   0  0  0  0  0  0  0  0  0  0  0  0
   21.0006   17.9012   26.5477 H   0  0  0  0  0  0  0  0  0  0  0  0
   22.0856   19.1301   26.3805 H   0  0  0  0  0  0  0  0  0  0  0  0
  1  2  1  0  0  0  0
  1  3  1  0  0  0  0
  1  4  1  0  0  0  0
  1  5  1  0  0  0  0
  5  6  1  0  0  0  0
  5  7  1  0  0  0  0
  5  8  1  0  0  0  0
  8  9  1  0  0  0  0
  8 10  1  0  0  0  0
  8 11  1  0  0  0  0
 11 12  1  0  0  0  0
 11 13  1  0  0  0  0
 11 14  1  0  0  0  0
 14 15  1  0  0  0  0
 14 16  1  0  0  0  0
 14 17  1  0  0  0  0
 17 18  1  0  0  0  0
 17 19  1  0  0  0  0
 17 20  1  0  0  0  0
 20 21  1  0  0  0  0
 20 22  1  0  0  0  0
 20 23  1  0  0  0  0
 23 24  1  0  0  0  0
 23 25  1  0  0  0  0
 23 26  1  0  0  0  0
M  END
> <VM2 Rank>
178

> <Conf_Id>
272

> <Probability>
0.00

> <Sum Probability>
100.00

> <Delta G>
5.917

> <G>
54.179

> <E>
21.472

> <-TS>
32.707

> <U+W>
0.010

> <U>
54.160

> <W>
-54.150

> <W(PB)>
-56.398

> <W(SA)>
2.248

> <Valence>
6.714

> <Coulomb>
46.802

> <VdW>
0.643

> <VdW6>
-8.862

> <VdW12>
9.505

> <Bond>
0.281

> <Angle>
1.744

> <Pdih>
4.688

> <Idih>
0.000

> <Tether>
0.000

$$$$
VeraChem MOL file


 26 25  0  0  0  0  0  0  0  0999 V2000     
   18.5122   18.5819   20.7937 C   0  0  0  0  0  0  0  0  0  0  0  0
   18.1465   17.7386   21.3935 H   0  0  0  0  0  0  0  0  0  0  0  0
   18.1400   19.5129   21.2384 H   0  0  0  0  0  0  0  0  0  0  0  0
   18.0676   18.4962   19.7937 H   0  0  0  0  0  0  0  0  0  0  0  0
   20.0551   18.5712   20.6981 C   0  0  0  0  0  0  0  0  0  0  0  0
   20.3957   19.4307   20.1040 H   0  0  0  0  0  0  0  0  0  0  0  0
   20.3683   17.6736   20.1468 H   0  0  0  0  0  0  0  0  0  0  0  0
   20.7561   18.5763   22.0774 C   0  0  0  0  0  0  0  0  0  0  0  0
   20.4108   17.7120   22.6578 H   0  0  0  0  0  0  0  0  0  0  0  0
   21.8338   18.4288   21.9226 H   0  0  0  0  0  0  0  0  0  0  0  0
   20.5417   19.8916   22.8687 C   0  0  0  0  0  0  0  0  0  0  0  0
   19.4760   20.0757   23.0449 H   0  0  0  0  0  0  0  0  0  0  0  0
   20.8869   20.7323   22.2512 H   0  0  0  0  0  0  0  0  0  0  0  0
   21.3070   19.9335   24.2157 C   0  0  0  0  0  0  0  0  0  0  0  0
   22.3850   19.8749   24.0115 H   0  0  0  0  0  0  0  0  0  0  0  0
   21.1448   20.9165   24.6792 H   0  0  0  0  0  0  0  0  0  0  0  0
   20.9372   18.8316   25.2450 C   0  0  0  0  0  0  0  0  0  0  0  0
   21.5613   18.9844   26.1354 H   0  0  0  0  0  0  0  0  0  0  0  0
   21.2029   17.8365   24.8663 H   0  0  0  0  0  0  0  0  0  0  0  0
   19.4623   18.8531   25.6981 C   0  0  0  0  0  0  0  0  0  0  0  0
   19.3758   18.3452   26.6625 H   0  0  0  0  0  0  0  0  0  0  0  0
   19.1318   19.8870   25.8285 H   0  0  0  0  0  0  0  0  0  0  0  0
   18.5094   18.1597   24.7442 N   0  3  0  0  0  0  0  0  0  0  0  0
   18.7175   17.1589   24.6647 H   0  0  0  0  0  0  0  0  0  0  0  0
   18.5663   18.5587   23.8020 H   0  0  0  0  0  0  0  0  0  0  0  0
   17.5351   18.2389   25.0557 H   0  0  0  0  0  0  0  0  0  0  0  0
  1  2  1  0  0  0  0
  1  3  1  0  0  0  0
  1  4  1  0  0  0  0
  1  5  1  0  0  0  0
  5  6  1  0  0  0  0
  5  7  1  0  0  0  0
  5  8  1  0  0  0  0
  8  9  1  0  0  0  0
  8 10  1  0  0  0  0
  8 11  1  0  0  0  0
 11 12  1  0  0  0  0
 11 13  1  0  0  0  0
 11 14  1  0  0  0  0
 14 15  1  0  0  0  0
 14 16  1  0  0  0  0
 14 17  1  0  0  0  0
 17 18  1  0  0  0  0
 17 19  1  0  0  0  0
 17 20  1  0  0  0  0
 20 21  1  0  0  0  0
 20 22  1  0  0  0  0
 20 23  1  0  0  0  0
 23 24  1  0  0  0  0
 23 25  1  0  0  0  0
 23 26  1  0  0  0  0
M  END
> <VM2 Rank>
179

> <Conf_Id>
271

> <Probability>
0.00

> <Sum Probability>
100.00

> <Delta G>
6.011

> <G>
54.273

> <E>
20.896

> <-TS>
33.377

> <U+W>
-0.566

> <U>
52.431

> <W>
-52.997

> <W(PB)>
-55.181

> <W(SA)>
2.184

> <Valence>
4.698

> <Coulomb>
47.457

> <VdW>
0.277

> <VdW6>
-9.683

> <VdW12>
9.959

> <Bond>
0.267

> <Angle>
1.656

> <Pdih>
2.775

> <Idih>
0.000

> <Tether>
0.000

$$$$
VeraChem MOL file


 26 25  0  0  0  0  0  0  0  0999 V2000     
   20.0716   18.2247   20.2193 C   0  0  0  0  0  0  0  0  0  0  0  0
   20.3711   17.3205   19.6737 H   0  0  0  0  0  0  0  0  0  0  0  0
   19.0109   18.1172   20.4786 H   0  0  0  0  0  0  0  0  0  0  0  0
   20.1752   19.0785   19.5372 H   0  0  0  0  0  0  0  0  0  0  0  0
   20.9457   18.4109   21.4798 C   0  0  0  0  0  0  0  0  0  0  0  0
   22.0030   18.3855   21.1810 H   0  0  0  0  0  0  0  0  0  0  0  0
   20.8049   17.5556   22.1517 H   0  0  0  0  0  0  0  0  0  0  0  0
   20.6787   19.7443   22.2256 C   0  0  0  0  0  0  0  0  0  0  0  0
   21.3698   19.8252   23.0717 H   0  0  0  0  0  0  0  0  0  0  0  0
   20.9479   20.5724   21.5557 H   0  0  0  0  0  0  0  0  0  0  0  0
   19.2161   19.9666   22.7020 C   0  0  0  0  0  0  0  0  0  0  0  0
   18.5665   19.9991   21.8174 H   0  0  0  0  0  0  0  0  0  0  0  0
   19.1322   20.9649   23.1528 H   0  0  0  0  0  0  0  0  0  0  0  0
   18.6470   18.9111   23.6898 C   0  0  0  0  0  0  0  0  0  0  0  0
   17.5536   18.9154   23.5823 H   0  0  0  0  0  0  0  0  0  0  0  0
   18.9543   17.8974   23.4074 H   0  0  0  0  0  0  0  0  0  0  0  0
   18.9553   19.1805   25.1871 C   0  0  0  0  0  0  0  0  0  0  0  0
   18.4170   18.4435   25.7976 H   0  0  0  0  0  0  0  0  0  0  0  0
   18.5471   20.1601   25.4688 H   0  0  0  0  0  0  0  0  0  0  0  0
   20.4463   19.1413   25.5728 C   0  0  0  0  0  0  0  0  0  0  0  0
   20.9855   19.9337   25.0496 H   0  0  0  0  0  0  0  0  0  0  0  0
   20.5456   19.3217   26.6466 H   0  0  0  0  0  0  0  0  0  0  0  0
   21.1203   17.8196   25.2647 N   0  3  0  0  0  0  0  0  0  0  0  0
   21.0840   17.6082   24.2634 H   0  0  0  0  0  0  0  0  0  0  0  0
   20.6716   17.0414   25.7589 H   0  0  0  0  0  0  0  0  0  0  0  0
   22.1080   17.8219   25.5418 H   0  0  0  0  0  0  0  0  0  0  0  0
  1  2  1  0  0  0  0
  1  3  1  0  0  0  0
  1  4  1  0  0  0  0
  1  5  1  0  0  0  0
  5  6  1  0  0  0  0
  5  7  1  0  0  0  0
  5  8  1  0  0  0  0
  8  9  1  0  0  0  0
  8 10  1  0  0  0  0
  8 11  1  0  0  0  0
 11 12  1  0  0  0  0
 11 13  1  0  0  0  0
 11 14  1  0  0  0  0
 14 15  1  0  0  0  0
 14 16  1  0  0  0  0
 14 17  1  0  0  0  0
 17 18  1  0  0  0  0
 17 19  1  0  0  0  0
 17 20  1  0  0  0  0
 20 21  1  0  0  0  0
 20 22  1  0  0  0  0
 20 23  1  0  0  0  0
 23 24  1  0  0  0  0
 23 25  1  0  0  0  0
 23 26  1  0  0  0  0
M  END
> <VM2 Rank>
180

> <Conf_Id>
575

> <Probability>
0.00

> <Sum Probability>
100.00

> <Delta G>
6.094

> <G>
54.355

> <E>
20.889

> <-TS>
33.466

> <U+W>
-0.573

> <U>
53.513

> <W>
-54.086

> <W(PB)>
-56.256

> <W(SA)>
2.170

> <Valence>
6.042

> <Coulomb>
47.147

> <VdW>
0.324

> <VdW6>
-10.118

> <VdW12>
10.442

> <Bond>
0.350

> <Angle>
2.482

> <Pdih>
3.210

> <Idih>
0.000

> <Tether>
0.000

$$$$
VeraChem MOL file


 26 25  0  0  0  0  0  0  0  0999 V2000     
   18.4164   18.5604   21.3572 C   0  0  0  0  0  0  0  0  0  0  0  0
   17.7731   17.6751   21.2717 H   0  0  0  0  0  0  0  0  0  0  0  0
   18.3119   18.9502   22.3752 H   0  0  0  0  0  0  0  0  0  0  0  0
   18.0304   19.3202   20.6654 H   0  0  0  0  0  0  0  0  0  0  0  0
   19.8813   18.1997   21.0166 C   0  0  0  0  0  0  0  0  0  0  0  0
   19.9000   17.8129   19.9880 H   0  0  0  0  0  0  0  0  0  0  0  0
   20.2372   17.3765   21.6505 H   0  0  0  0  0  0  0  0  0  0  0  0
   20.8497   19.4065   21.1035 C   0  0  0  0  0  0  0  0  0  0  0  0
   21.6144   19.2781   20.3249 H   0  0  0  0  0  0  0  0  0  0  0  0
   20.3224   20.3348   20.8442 H   0  0  0  0  0  0  0  0  0  0  0  0
   21.5960   19.5772   22.4547 C   0  0  0  0  0  0  0  0  0  0  0  0
   22.3227   20.3909   22.3232 H   0  0  0  0  0  0  0  0  0  0  0  0
   22.1962   18.6824   22.6695 H   0  0  0  0  0  0  0  0  0  0  0  0
   20.7050   19.9320   23.6723 C   0  0  0  0  0  0  0  0  0  0  0  0
   21.2660   20.6149   24.3255 H   0  0  0  0  0  0  0  0  0  0  0  0
   19.8202   20.4930   23.3428 H   0  0  0  0  0  0  0  0  0  0  0  0
   20.2936   18.6997   24.5131 C   0  0  0  0  0  0  0  0  0  0  0  0
   21.1935   18.2085   24.9066 H   0  0  0  0  0  0  0  0  0  0  0  0
   19.7786   17.9608   23.8895 H   0  0  0  0  0  0  0  0  0  0  0  0
   19.3798   19.1006   25.6842 C   0  0  0  0  0  0  0  0  0  0  0  0
   19.8984   19.8167   26.3275 H   0  0  0  0  0  0  0  0  0  0  0  0
   18.4748   19.5775   25.2981 H   0  0  0  0  0  0  0  0  0  0  0  0
   18.9591   17.9228   26.5393 N   0  3  0  0  0  0  0  0  0  0  0  0
   18.4404   17.2233   25.9983 H   0  0  0  0  0  0  0  0  0  0  0  0
   18.3516   18.2123   27.3136 H   0  0  0  0  0  0  0  0  0  0  0  0
   19.7656   17.4458   26.9556 H   0  0  0  0  0  0  0  0  0  0  0  0
  1  2  1  0  0  0  0
  1  3  1  0  0  0  0
  1  4  1  0  0  0  0
  1  5  1  0  0  0  0
  5  6  1  0  0  0  0
  5  7  1  0  0  0  0
  5  8  1  0  0  0  0
  8  9  1  0  0  0  0
  8 10  1  0  0  0  0
  8 11  1  0  0  0  0
 11 12  1  0  0  0  0
 11 13  1  0  0  0  0
 11 14  1  0  0  0  0
 14 15  1  0  0  0  0
 14 16  1  0  0  0  0
 14 17  1  0  0  0  0
 17 18  1  0  0  0  0
 17 19  1  0  0  0  0
 17 20  1  0  0  0  0
 20 21  1  0  0  0  0
 20 22  1  0  0  0  0
 20 23  1  0  0  0  0
 23 24  1  0  0  0  0
 23 25  1  0  0  0  0
 23 26  1  0  0  0  0
M  END
> <VM2 Rank>
181

> <Conf_Id>
102

> <Probability>
0.00

> <Sum Probability>
100.00

> <Delta G>
6.216

> <G>
54.478

> <E>
21.257

> <-TS>
33.220

> <U+W>
-0.204

> <U>
53.883

> <W>
-54.088

> <W(PB)>
-56.325

> <W(SA)>
2.237

> <Valence>
7.743

> <Coulomb>
45.678

> <VdW>
0.462

> <VdW6>
-8.645

> <VdW12>
9.107

> <Bond>
0.266

> <Angle>
1.932

> <Pdih>
5.545

> <Idih>
0.000

> <Tether>
0.000

$$$$
VeraChem MOL file


 26 25  0  0  0  0  0  0  0  0999 V2000     
   20.9348   19.1053   19.7574 C   0  0  0  0  0  0  0  0  0  0  0  0
   20.8880   18.1074   19.3023 H   0  0  0  0  0  0  0  0  0  0  0  0
   20.1971   19.7450   19.2556 H   0  0  0  0  0  0  0  0  0  0  0  0
   21.9315   19.5199   19.5580 H   0  0  0  0  0  0  0  0  0  0  0  0
   20.6671   19.0364   21.2758 C   0  0  0  0  0  0  0  0  0  0  0  0
   20.7599   20.0454   21.6992 H   0  0  0  0  0  0  0  0  0  0  0  0
   21.4365   18.4135   21.7529 H   0  0  0  0  0  0  0  0  0  0  0  0
   19.2650   18.4616   21.5823 C   0  0  0  0  0  0  0  0  0  0  0  0
   18.4974   19.1178   21.1493 H   0  0  0  0  0  0  0  0  0  0  0  0
   19.1588   17.4923   21.0758 H   0  0  0  0  0  0  0  0  0  0  0  0
   18.9781   18.2581   23.0922 C   0  0  0  0  0  0  0  0  0  0  0  0
   19.6897   17.5332   23.5047 H   0  0  0  0  0  0  0  0  0  0  0  0
   17.9880   17.7899   23.1817 H   0  0  0  0  0  0  0  0  0  0  0  0
   18.9714   19.5698   23.9238 C   0  0  0  0  0  0  0  0  0  0  0  0
   18.6834   20.4056   23.2712 H   0  0  0  0  0  0  0  0  0  0  0  0
   18.1819   19.5137   24.6861 H   0  0  0  0  0  0  0  0  0  0  0  0
   20.3170   19.9038   24.6220 C   0  0  0  0  0  0  0  0  0  0  0  0
   20.3877   20.9941   24.7316 H   0  0  0  0  0  0  0  0  0  0  0  0
   21.1704   19.6061   24.0011 H   0  0  0  0  0  0  0  0  0  0  0  0
   20.4543   19.2891   26.0309 C   0  0  0  0  0  0  0  0  0  0  0  0
   21.3773   19.6499   26.4928 H   0  0  0  0  0  0  0  0  0  0  0  0
   19.6159   19.6136   26.6531 H   0  0  0  0  0  0  0  0  0  0  0  0
   20.4933   17.7749   26.0567 N   0  3  0  0  0  0  0  0  0  0  0  0
   19.6374   17.3718   25.6631 H   0  0  0  0  0  0  0  0  0  0  0  0
   20.5863   17.4131   27.0121 H   0  0  0  0  0  0  0  0  0  0  0  0
   21.2829   17.4057   25.5174 H   0  0  0  0  0  0  0  0  0  0  0  0
  1  2  1  0  0  0  0
  1  3  1  0  0  0  0
  1  4  1  0  0  0  0
  1  5  1  0  0  0  0
  5  6  1  0  0  0  0
  5  7  1  0  0  0  0
  5  8  1  0  0  0  0
  8  9  1  0  0  0  0
  8 10  1  0  0  0  0
  8 11  1  0  0  0  0
 11 12  1  0  0  0  0
 11 13  1  0  0  0  0
 11 14  1  0  0  0  0
 14 15  1  0  0  0  0
 14 16  1  0  0  0  0
 14 17  1  0  0  0  0
 17 18  1  0  0  0  0
 17 19  1  0  0  0  0
 17 20  1  0  0  0  0
 20 21  1  0  0  0  0
 20 22  1  0  0  0  0
 20 23  1  0  0  0  0
 23 24  1  0  0  0  0
 23 25  1  0  0  0  0
 23 26  1  0  0  0  0
M  END
> <VM2 Rank>
182

> <Conf_Id>
246

> <Probability>
0.00

> <Sum Probability>
100.00

> <Delta G>
6.230

> <G>
54.492

> <E>
21.518

> <-TS>
32.973

> <U+W>
0.057

> <U>
54.162

> <W>
-54.106

> <W(PB)>
-56.351

> <W(SA)>
2.245

> <Valence>
7.003

> <Coulomb>
46.401

> <VdW>
0.758

> <VdW6>
-8.752

> <VdW12>
9.510

> <Bond>
0.280

> <Angle>
1.397

> <Pdih>
5.327

> <Idih>
0.000

> <Tether>
0.000

$$$$
VeraChem MOL file


 26 25  0  0  0  0  0  0  0  0999 V2000     
   20.6784   20.3410   21.1163 C   0  0  0  0  0  0  0  0  0  0  0  0
   21.3790   20.9337   20.5141 H   0  0  0  0  0  0  0  0  0  0  0  0
   19.6731   20.7552   20.9659 H   0  0  0  0  0  0  0  0  0  0  0  0
   20.9579   20.4739   22.1684 H   0  0  0  0  0  0  0  0  0  0  0  0
   20.7358   18.8543   20.7025 C   0  0  0  0  0  0  0  0  0  0  0  0
   21.7354   18.4534   20.9210 H   0  0  0  0  0  0  0  0  0  0  0  0
   20.6138   18.7876   19.6123 H   0  0  0  0  0  0  0  0  0  0  0  0
   19.6598   17.9617   21.3723 C   0  0  0  0  0  0  0  0  0  0  0  0
   18.6556   18.2911   21.0719 H   0  0  0  0  0  0  0  0  0  0  0  0
   19.7723   16.9473   20.9654 H   0  0  0  0  0  0  0  0  0  0  0  0
   19.7605   17.8763   22.9175 C   0  0  0  0  0  0  0  0  0  0  0  0
   20.8063   17.9919   23.2205 H   0  0  0  0  0  0  0  0  0  0  0  0
   19.4672   16.8637   23.2274 H   0  0  0  0  0  0  0  0  0  0  0  0
   18.8383   18.8870   23.6486 C   0  0  0  0  0  0  0  0  0  0  0  0
   19.0455   19.9158   23.3312 H   0  0  0  0  0  0  0  0  0  0  0  0
   17.8031   18.6830   23.3420 H   0  0  0  0  0  0  0  0  0  0  0  0
   18.9077   18.7980   25.1947 C   0  0  0  0  0  0  0  0  0  0  0  0
   18.9573   17.7507   25.5208 H   0  0  0  0  0  0  0  0  0  0  0  0
   17.9675   19.1950   25.6001 H   0  0  0  0  0  0  0  0  0  0  0  0
   20.0562   19.6124   25.8275 C   0  0  0  0  0  0  0  0  0  0  0  0
   20.0201   20.6423   25.4623 H   0  0  0  0  0  0  0  0  0  0  0  0
   19.9200   19.6346   26.9121 H   0  0  0  0  0  0  0  0  0  0  0  0
   21.4445   19.0684   25.5616 N   0  3  0  0  0  0  0  0  0  0  0  0
   21.5445   18.1038   25.8941 H   0  0  0  0  0  0  0  0  0  0  0  0
   22.1666   19.6247   26.0321 H   0  0  0  0  0  0  0  0  0  0  0  0
   21.6646   19.0732   24.5615 H   0  0  0  0  0  0  0  0  0  0  0  0
  1  2  1  0  0  0  0
  1  3  1  0  0  0  0
  1  4  1  0  0  0  0
  1  5  1  0  0  0  0
  5  6  1  0  0  0  0
  5  7  1  0  0  0  0
  5  8  1  0  0  0  0
  8  9  1  0  0  0  0
  8 10  1  0  0  0  0
  8 11  1  0  0  0  0
 11 12  1  0  0  0  0
 11 13  1  0  0  0  0
 11 14  1  0  0  0  0
 14 15  1  0  0  0  0
 14 16  1  0  0  0  0
 14 17  1  0  0  0  0
 17 18  1  0  0  0  0
 17 19  1  0  0  0  0
 17 20  1  0  0  0  0
 20 21  1  0  0  0  0
 20 22  1  0  0  0  0
 20 23  1  0  0  0  0
 23 24  1  0  0  0  0
 23 25  1  0  0  0  0
 23 26  1  0  0  0  0
M  END
> <VM2 Rank>
183

> <Conf_Id>
1317

> <Probability>
0.00

> <Sum Probability>
100.00

> <Delta G>
6.234

> <G>
54.496

> <E>
22.059

> <-TS>
32.437

> <U+W>
0.597

> <U>
54.533

> <W>
-53.936

> <W(PB)>
-56.143

> <W(SA)>
2.207

> <Valence>
6.949

> <Coulomb>
46.991

> <VdW>
0.593

> <VdW6>
-8.892

> <VdW12>
9.485

> <Bond>
0.283

> <Angle>
1.766

> <Pdih>
4.900

> <Idih>
0.000

> <Tether>
0.000

$$$$
VeraChem MOL file


 26 25  0  0  0  0  0  0  0  0999 V2000     
   20.8087   19.7619   20.3895 C   0  0  0  0  0  0  0  0  0  0  0  0
   20.0068   20.5078   20.3163 H   0  0  0  0  0  0  0  0  0  0  0  0
   21.4250   19.9958   21.2665 H   0  0  0  0  0  0  0  0  0  0  0  0
   21.4466   19.8670   19.5024 H   0  0  0  0  0  0  0  0  0  0  0  0
   20.2326   18.3316   20.4735 C   0  0  0  0  0  0  0  0  0  0  0  0
   21.0564   17.6135   20.5889 H   0  0  0  0  0  0  0  0  0  0  0  0
   19.7500   18.0892   19.5163 H   0  0  0  0  0  0  0  0  0  0  0  0
   19.2009   18.1246   21.6118 C   0  0  0  0  0  0  0  0  0  0  0  0
   18.3254   18.7688   21.4510 H   0  0  0  0  0  0  0  0  0  0  0  0
   18.8277   17.0939   21.5359 H   0  0  0  0  0  0  0  0  0  0  0  0
   19.7666   18.3309   23.0411 C   0  0  0  0  0  0  0  0  0  0  0  0
   20.8413   18.1030   23.0546 H   0  0  0  0  0  0  0  0  0  0  0  0
   19.2815   17.6017   23.7020 H   0  0  0  0  0  0  0  0  0  0  0  0
   19.5045   19.7511   23.6032 C   0  0  0  0  0  0  0  0  0  0  0  0
   19.7952   20.5032   22.8601 H   0  0  0  0  0  0  0  0  0  0  0  0
   18.4252   19.8860   23.7586 H   0  0  0  0  0  0  0  0  0  0  0  0
   20.2560   20.0654   24.9220 C   0  0  0  0  0  0  0  0  0  0  0  0
   20.0602   21.1149   25.1789 H   0  0  0  0  0  0  0  0  0  0  0  0
   21.3410   19.9897   24.7707 H   0  0  0  0  0  0  0  0  0  0  0  0
   19.8282   19.2000   26.1255 C   0  0  0  0  0  0  0  0  0  0  0  0
   20.1001   19.7168   27.0498 H   0  0  0  0  0  0  0  0  0  0  0  0
   18.7432   19.0656   26.1189 H   0  0  0  0  0  0  0  0  0  0  0  0
   20.4836   17.8335   26.1745 N   0  3  0  0  0  0  0  0  0  0  0  0
   20.1713   17.2911   26.9873 H   0  0  0  0  0  0  0  0  0  0  0  0
   21.5044   17.9047   26.2376 H   0  0  0  0  0  0  0  0  0  0  0  0
   20.2696   17.2795   25.3406 H   0  0  0  0  0  0  0  0  0  0  0  0
  1  2  1  0  0  0  0
  1  3  1  0  0  0  0
  1  4  1  0  0  0  0
  1  5  1  0  0  0  0
  5  6  1  0  0  0  0
  5  7  1  0  0  0  0
  5  8  1  0  0  0  0
  8  9  1  0  0  0  0
  8 10  1  0  0  0  0
  8 11  1  0  0  0  0
 11 12  1  0  0  0  0
 11 13  1  0  0  0  0
 11 14  1  0  0  0  0
 14 15  1  0  0  0  0
 14 16  1  0  0  0  0
 14 17  1  0  0  0  0
 17 18  1  0  0  0  0
 17 19  1  0  0  0  0
 17 20  1  0  0  0  0
 20 21  1  0  0  0  0
 20 22  1  0  0  0  0
 20 23  1  0  0  0  0
 23 24  1  0  0  0  0
 23 25  1  0  0  0  0
 23 26  1  0  0  0  0
M  END
> <VM2 Rank>
184

> <Conf_Id>
1254

> <Probability>
0.00

> <Sum Probability>
100.00

> <Delta G>
6.266

> <G>
54.528

> <E>
21.581

> <-TS>
32.947

> <U+W>
0.119

> <U>
54.015

> <W>
-53.895

> <W(PB)>
-56.155

> <W(SA)>
2.260

> <Valence>
6.748

> <Coulomb>
46.597

> <VdW>
0.669

> <VdW6>
-8.868

> <VdW12>
9.537

> <Bond>
0.273

> <Angle>
1.645

> <Pdih>
4.830

> <Idih>
0.000

> <Tether>
0.000

$$$$
VeraChem MOL file


 26 25  0  0  0  0  0  0  0  0999 V2000     
   21.0608   20.3044   21.4457 C   0  0  0  0  0  0  0  0  0  0  0  0
   20.6966   20.5226   22.4551 H   0  0  0  0  0  0  0  0  0  0  0  0
   22.1305   20.5490   21.4173 H   0  0  0  0  0  0  0  0  0  0  0  0
   20.5466   20.9799   20.7498 H   0  0  0  0  0  0  0  0  0  0  0  0
   20.8326   18.8272   21.0483 C   0  0  0  0  0  0  0  0  0  0  0  0
   21.4196   18.1563   21.6898 H   0  0  0  0  0  0  0  0  0  0  0  0
   21.2284   18.6893   20.0323 H   0  0  0  0  0  0  0  0  0  0  0  0
   19.3399   18.4108   21.0531 C   0  0  0  0  0  0  0  0  0  0  0  0
   18.7064   19.2690   20.7902 H   0  0  0  0  0  0  0  0  0  0  0  0
   19.1938   17.6818   20.2439 H   0  0  0  0  0  0  0  0  0  0  0  0
   18.8273   17.7511   22.3622 C   0  0  0  0  0  0  0  0  0  0  0  0
   19.4036   16.8405   22.5761 H   0  0  0  0  0  0  0  0  0  0  0  0
   17.8007   17.4084   22.1721 H   0  0  0  0  0  0  0  0  0  0  0  0
   18.7945   18.6720   23.6085 C   0  0  0  0  0  0  0  0  0  0  0  0
   18.6421   19.7159   23.3034 H   0  0  0  0  0  0  0  0  0  0  0  0
   17.9166   18.4060   24.2135 H   0  0  0  0  0  0  0  0  0  0  0  0
   20.0488   18.5382   24.5050 C   0  0  0  0  0  0  0  0  0  0  0  0
   20.9588   18.7388   23.9290 H   0  0  0  0  0  0  0  0  0  0  0  0
   20.1282   17.5060   24.8712 H   0  0  0  0  0  0  0  0  0  0  0  0
   19.9850   19.4998   25.7043 C   0  0  0  0  0  0  0  0  0  0  0  0
   19.9205   20.5308   25.3462 H   0  0  0  0  0  0  0  0  0  0  0  0
   19.0936   19.2863   26.3005 H   0  0  0  0  0  0  0  0  0  0  0  0
   21.1921   19.3955   26.6139 N   0  3  0  0  0  0  0  0  0  0  0  0
   22.0635   19.6125   26.1194 H   0  0  0  0  0  0  0  0  0  0  0  0
   21.2939   18.4540   27.0069 H   0  0  0  0  0  0  0  0  0  0  0  0
   21.1289   20.0441   27.4062 H   0  0  0  0  0  0  0  0  0  0  0  0
  1  2  1  0  0  0  0
  1  3  1  0  0  0  0
  1  4  1  0  0  0  0
  1  5  1  0  0  0  0
  5  6  1  0  0  0  0
  5  7  1  0  0  0  0
  5  8  1  0  0  0  0
  8  9  1  0  0  0  0
  8 10  1  0  0  0  0
  8 11  1  0  0  0  0
 11 12  1  0  0  0  0
 11 13  1  0  0  0  0
 11 14  1  0  0  0  0
 14 15  1  0  0  0  0
 14 16  1  0  0  0  0
 14 17  1  0  0  0  0
 17 18  1  0  0  0  0
 17 19  1  0  0  0  0
 17 20  1  0  0  0  0
 20 21  1  0  0  0  0
 20 22  1  0  0  0  0
 20 23  1  0  0  0  0
 23 24  1  0  0  0  0
 23 25  1  0  0  0  0
 23 26  1  0  0  0  0
M  END
> <VM2 Rank>
185

> <Conf_Id>
1191

> <Probability>
0.00

> <Sum Probability>
100.00

> <Delta G>
6.319

> <G>
54.580

> <E>
21.360

> <-TS>
33.220

> <U+W>
-0.102

> <U>
53.883

> <W>
-53.985

> <W(PB)>
-56.249

> <W(SA)>
2.264

> <Valence>
7.744

> <Coulomb>
45.678

> <VdW>
0.462

> <VdW6>
-8.645

> <VdW12>
9.107

> <Bond>
0.266

> <Angle>
1.932

> <Pdih>
5.545

> <Idih>
0.000

> <Tether>
0.000

$$$$
VeraChem MOL file


 26 25  0  0  0  0  0  0  0  0999 V2000     
   18.5887   19.5979   21.1537 C   0  0  0  0  0  0  0  0  0  0  0  0
   17.6038   19.2332   20.8348 H   0  0  0  0  0  0  0  0  0  0  0  0
   18.5295   19.8208   22.2241 H   0  0  0  0  0  0  0  0  0  0  0  0
   18.7820   20.5399   20.6242 H   0  0  0  0  0  0  0  0  0  0  0  0
   19.6823   18.5521   20.8337 C   0  0  0  0  0  0  0  0  0  0  0  0
   19.6672   18.3742   19.7492 H   0  0  0  0  0  0  0  0  0  0  0  0
   19.4438   17.5854   21.2971 H   0  0  0  0  0  0  0  0  0  0  0  0
   21.1086   19.0066   21.2346 C   0  0  0  0  0  0  0  0  0  0  0  0
   21.8111   18.5866   20.5015 H   0  0  0  0  0  0  0  0  0  0  0  0
   21.2007   20.0969   21.1352 H   0  0  0  0  0  0  0  0  0  0  0  0
   21.5911   18.5567   22.6406 C   0  0  0  0  0  0  0  0  0  0  0  0
   22.6486   18.8425   22.7270 H   0  0  0  0  0  0  0  0  0  0  0  0
   21.5791   17.4603   22.7106 H   0  0  0  0  0  0  0  0  0  0  0  0
   20.8336   19.1806   23.8403 C   0  0  0  0  0  0  0  0  0  0  0  0
   21.5582   19.3585   24.6462 H   0  0  0  0  0  0  0  0  0  0  0  0
   20.4405   20.1686   23.5659 H   0  0  0  0  0  0  0  0  0  0  0  0
   19.7051   18.2723   24.3911 C   0  0  0  0  0  0  0  0  0  0  0  0
   20.1344   17.3380   24.7767 H   0  0  0  0  0  0  0  0  0  0  0  0
   19.0215   17.9843   23.5848 H   0  0  0  0  0  0  0  0  0  0  0  0
   18.8835   18.9545   25.5017 C   0  0  0  0  0  0  0  0  0  0  0  0
   18.4553   19.8863   25.1227 H   0  0  0  0  0  0  0  0  0  0  0  0
   18.0616   18.2980   25.8001 H   0  0  0  0  0  0  0  0  0  0  0  0
   19.6880   19.2782   26.7453 N   0  3  0  0  0  0  0  0  0  0  0  0
   20.4583   19.9226   26.5417 H   0  0  0  0  0  0  0  0  0  0  0  0
   20.0988   18.4368   27.1626 H   0  0  0  0  0  0  0  0  0  0  0  0
   19.1101   19.7199   27.4685 H   0  0  0  0  0  0  0  0  0  0  0  0
  1  2  1  0  0  0  0
  1  3  1  0  0  0  0
  1  4  1  0  0  0  0
  1  5  1  0  0  0  0
  5  6  1  0  0  0  0
  5  7  1  0  0  0  0
  5  8  1  0  0  0  0
  8  9  1  0  0  0  0
  8 10  1  0  0  0  0
  8 11  1  0  0  0  0
 11 12  1  0  0  0  0
 11 13  1  0  0  0  0
 11 14  1  0  0  0  0
 14 15  1  0  0  0  0
 14 16  1  0  0  0  0
 14 17  1  0  0  0  0
 17 18  1  0  0  0  0
 17 19  1  0  0  0  0
 17 20  1  0  0  0  0
 20 21  1  0  0  0  0
 20 22  1  0  0  0  0
 20 23  1  0  0  0  0
 23 24  1  0  0  0  0
 23 25  1  0  0  0  0
 23 26  1  0  0  0  0
M  END
> <VM2 Rank>
186

> <Conf_Id>
797

> <Probability>
0.00

> <Sum Probability>
100.00

> <Delta G>
6.539

> <G>
54.800

> <E>
21.464

> <-TS>
33.336

> <U+W>
0.002

> <U>
54.063

> <W>
-54.061

> <W(PB)>
-56.253

> <W(SA)>
2.192

> <Valence>
7.875

> <Coulomb>
45.591

> <VdW>
0.597

> <VdW6>
-9.142

> <VdW12>
9.739

> <Bond>
0.290

> <Angle>
1.958

> <Pdih>
5.627

> <Idih>
0.000

> <Tether>
0.000

$$$$
VeraChem MOL file


 26 25  0  0  0  0  0  0  0  0999 V2000     
   21.0518   18.2784   20.4325 C   0  0  0  0  0  0  0  0  0  0  0  0
   20.2975   17.4837   20.4792 H   0  0  0  0  0  0  0  0  0  0  0  0
   20.8401   18.8989   19.5521 H   0  0  0  0  0  0  0  0  0  0  0  0
   22.0273   17.7997   20.2771 H   0  0  0  0  0  0  0  0  0  0  0  0
   21.0670   19.1307   21.7221 C   0  0  0  0  0  0  0  0  0  0  0  0
   21.8901   19.8553   21.6518 H   0  0  0  0  0  0  0  0  0  0  0  0
   21.2967   18.4872   22.5798 H   0  0  0  0  0  0  0  0  0  0  0  0
   19.7434   19.9043   21.9543 C   0  0  0  0  0  0  0  0  0  0  0  0
   19.8966   20.6963   22.6993 H   0  0  0  0  0  0  0  0  0  0  0  0
   19.4866   20.4295   21.0239 H   0  0  0  0  0  0  0  0  0  0  0  0
   18.5413   19.0172   22.3753 C   0  0  0  0  0  0  0  0  0  0  0  0
   18.6450   18.0027   21.9704 H   0  0  0  0  0  0  0  0  0  0  0  0
   17.6394   19.4280   21.9009 H   0  0  0  0  0  0  0  0  0  0  0  0
   18.2660   18.9451   23.9017 C   0  0  0  0  0  0  0  0  0  0  0  0
   18.0513   19.9490   24.2936 H   0  0  0  0  0  0  0  0  0  0  0  0
   17.3397   18.3706   24.0408 H   0  0  0  0  0  0  0  0  0  0  0  0
   19.3739   18.2724   24.7494 C   0  0  0  0  0  0  0  0  0  0  0  0
   19.8034   17.4226   24.2030 H   0  0  0  0  0  0  0  0  0  0  0  0
   18.9148   17.8561   25.6559 H   0  0  0  0  0  0  0  0  0  0  0  0
   20.4801   19.2533   25.1833 C   0  0  0  0  0  0  0  0  0  0  0  0
   20.9598   19.6920   24.3063 H   0  0  0  0  0  0  0  0  0  0  0  0
   20.0409   20.0629   25.7725 H   0  0  0  0  0  0  0  0  0  0  0  0
   21.5576   18.5975   26.0224 N   0  3  0  0  0  0  0  0  0  0  0  0
   22.2822   19.2671   26.3032 H   0  0  0  0  0  0  0  0  0  0  0  0
   22.0292   17.8407   25.5169 H   0  0  0  0  0  0  0  0  0  0  0  0
   21.1764   18.1929   26.8839 H   0  0  0  0  0  0  0  0  0  0  0  0
  1  2  1  0  0  0  0
  1  3  1  0  0  0  0
  1  4  1  0  0  0  0
  1  5  1  0  0  0  0
  5  6  1  0  0  0  0
  5  7  1  0  0  0  0
  5  8  1  0  0  0  0
  8  9  1  0  0  0  0
  8 10  1  0  0  0  0
  8 11  1  0  0  0  0
 11 12  1  0  0  0  0
 11 13  1  0  0  0  0
 11 14  1  0  0  0  0
 14 15  1  0  0  0  0
 14 16  1  0  0  0  0
 14 17  1  0  0  0  0
 17 18  1  0  0  0  0
 17 19  1  0  0  0  0
 17 20  1  0  0  0  0
 20 21  1  0  0  0  0
 20 22  1  0  0  0  0
 20 23  1  0  0  0  0
 23 24  1  0  0  0  0
 23 25  1  0  0  0  0
 23 26  1  0  0  0  0
M  END
> <VM2 Rank>
187

> <Conf_Id>
191

> <Probability>
0.00

> <Sum Probability>
100.00

> <Delta G>
6.586

> <G>
54.847

> <E>
21.540

> <-TS>
33.307

> <U+W>
0.078

> <U>
54.604

> <W>
-54.526

> <W(PB)>
-56.765

> <W(SA)>
2.239

> <Valence>
7.775

> <Coulomb>
46.392

> <VdW>
0.438

> <VdW6>
-9.390

> <VdW12>
9.827

> <Bond>
0.291

> <Angle>
1.965

> <Pdih>
5.519

> <Idih>
0.000

> <Tether>
0.000

$$$$
VeraChem MOL file


 26 25  0  0  0  0  0  0  0  0999 V2000     
   20.3269   17.8008   20.4082 C   0  0  0  0  0  0  0  0  0  0  0  0
   20.3897   16.7208   20.2224 H   0  0  0  0  0  0  0  0  0  0  0  0
   19.8813   18.2673   19.5201 H   0  0  0  0  0  0  0  0  0  0  0  0
   21.3512   18.1781   20.5143 H   0  0  0  0  0  0  0  0  0  0  0  0
   19.4784   18.0840   21.6691 C   0  0  0  0  0  0  0  0  0  0  0  0
   19.9390   17.5926   22.5344 H   0  0  0  0  0  0  0  0  0  0  0  0
   18.4924   17.6166   21.5384 H   0  0  0  0  0  0  0  0  0  0  0  0
   19.2781   19.5977   21.9387 C   0  0  0  0  0  0  0  0  0  0  0  0
   18.9402   20.0695   21.0057 H   0  0  0  0  0  0  0  0  0  0  0  0
   18.4560   19.7470   22.6512 H   0  0  0  0  0  0  0  0  0  0  0  0
   20.5460   20.3380   22.4423 C   0  0  0  0  0  0  0  0  0  0  0  0
   20.5458   21.3429   21.9979 H   0  0  0  0  0  0  0  0  0  0  0  0
   21.4555   19.8545   22.0643 H   0  0  0  0  0  0  0  0  0  0  0  0
   20.6495   20.5156   23.9813 C   0  0  0  0  0  0  0  0  0  0  0  0
   21.5351   21.1348   24.1809 H   0  0  0  0  0  0  0  0  0  0  0  0
   19.7940   21.0973   24.3518 H   0  0  0  0  0  0  0  0  0  0  0  0
   20.7917   19.2066   24.7968 C   0  0  0  0  0  0  0  0  0  0  0  0
   21.3125   19.4359   25.7360 H   0  0  0  0  0  0  0  0  0  0  0  0
   21.4285   18.4933   24.2574 H   0  0  0  0  0  0  0  0  0  0  0  0
   19.4356   18.5651   25.1484 C   0  0  0  0  0  0  0  0  0  0  0  0
   18.8377   19.2701   25.7322 H   0  0  0  0  0  0  0  0  0  0  0  0
   18.8850   18.3249   24.2370 H   0  0  0  0  0  0  0  0  0  0  0  0
   19.5747   17.2911   25.9562 N   0  3  0  0  0  0  0  0  0  0  0  0
   20.0561   17.4549   26.8465 H   0  0  0  0  0  0  0  0  0  0  0  0
   20.1076   16.5746   25.4528 H   0  0  0  0  0  0  0  0  0  0  0  0
   18.6617   16.8816   26.1823 H   0  0  0  0  0  0  0  0  0  0  0  0
  1  2  1  0  0  0  0
  1  3  1  0  0  0  0
  1  4  1  0  0  0  0
  1  5  1  0  0  0  0
  5  6  1  0  0  0  0
  5  7  1  0  0  0  0
  5  8  1  0  0  0  0
  8  9  1  0  0  0  0
  8 10  1  0  0  0  0
  8 11  1  0  0  0  0
 11 12  1  0  0  0  0
 11 13  1  0  0  0  0
 11 14  1  0  0  0  0
 14 15  1  0  0  0  0
 14 16  1  0  0  0  0
 14 17  1  0  0  0  0
 17 18  1  0  0  0  0
 17 19  1  0  0  0  0
 17 20  1  0  0  0  0
 20 21  1  0  0  0  0
 20 22  1  0  0  0  0
 20 23  1  0  0  0  0
 23 24  1  0  0  0  0
 23 25  1  0  0  0  0
 23 26  1  0  0  0  0
M  END
> <VM2 Rank>
188

> <Conf_Id>
836

> <Probability>
0.00

> <Sum Probability>
100.00

> <Delta G>
6.639

> <G>
54.901

> <E>
21.593

> <-TS>
33.307

> <U+W>
0.132

> <U>
54.604

> <W>
-54.473

> <W(PB)>
-56.712

> <W(SA)>
2.239

> <Valence>
7.775

> <Coulomb>
46.392

> <VdW>
0.438

> <VdW6>
-9.390

> <VdW12>
9.827

> <Bond>
0.291

> <Angle>
1.965

> <Pdih>
5.519

> <Idih>
0.000

> <Tether>
0.000

$$$$
VeraChem MOL file


 26 25  0  0  0  0  0  0  0  0999 V2000     
   18.7778   19.8812   21.3045 C   0  0  0  0  0  0  0  0  0  0  0  0
   18.2130   19.7175   22.2303 H   0  0  0  0  0  0  0  0  0  0  0  0
   19.4940   20.6947   21.4642 H   0  0  0  0  0  0  0  0  0  0  0  0
   18.0702   20.2225   20.5379 H   0  0  0  0  0  0  0  0  0  0  0  0
   19.4867   18.5905   20.8407 C   0  0  0  0  0  0  0  0  0  0  0  0
   20.1338   18.8183   19.9822 H   0  0  0  0  0  0  0  0  0  0  0  0
   18.7241   17.8933   20.4665 H   0  0  0  0  0  0  0  0  0  0  0  0
   20.3093   17.8624   21.9352 C   0  0  0  0  0  0  0  0  0  0  0  0
   19.6609   17.5474   22.7595 H   0  0  0  0  0  0  0  0  0  0  0  0
   20.6686   16.9249   21.4887 H   0  0  0  0  0  0  0  0  0  0  0  0
   21.5552   18.6271   22.4601 C   0  0  0  0  0  0  0  0  0  0  0  0
   22.0491   19.1313   21.6183 H   0  0  0  0  0  0  0  0  0  0  0  0
   22.2805   17.8835   22.8184 H   0  0  0  0  0  0  0  0  0  0  0  0
   21.3308   19.6504   23.6082 C   0  0  0  0  0  0  0  0  0  0  0  0
   22.3111   20.0861   23.8458 H   0  0  0  0  0  0  0  0  0  0  0  0
   20.7177   20.4958   23.2778 H   0  0  0  0  0  0  0  0  0  0  0  0
   20.7520   19.0505   24.9148 C   0  0  0  0  0  0  0  0  0  0  0  0
   21.1749   19.5973   25.7681 H   0  0  0  0  0  0  0  0  0  0  0  0
   21.0716   18.0061   25.0281 H   0  0  0  0  0  0  0  0  0  0  0  0
   19.2168   19.1546   24.9967 C   0  0  0  0  0  0  0  0  0  0  0  0
   18.9182   20.2047   24.9370 H   0  0  0  0  0  0  0  0  0  0  0  0
   18.7554   18.6223   24.1630 H   0  0  0  0  0  0  0  0  0  0  0  0
   18.6525   18.5824   26.2809 N   0  3  0  0  0  0  0  0  0  0  0  0
   17.6308   18.6654   26.3188 H   0  0  0  0  0  0  0  0  0  0  0  0
   19.0217   19.0632   27.1076 H   0  0  0  0  0  0  0  0  0  0  0  0
   18.8755   17.5873   26.3862 H   0  0  0  0  0  0  0  0  0  0  0  0
  1  2  1  0  0  0  0
  1  3  1  0  0  0  0
  1  4  1  0  0  0  0
  1  5  1  0  0  0  0
  5  6  1  0  0  0  0
  5  7  1  0  0  0  0
  5  8  1  0  0  0  0
  8  9  1  0  0  0  0
  8 10  1  0  0  0  0
  8 11  1  0  0  0  0
 11 12  1  0  0  0  0
 11 13  1  0  0  0  0
 11 14  1  0  0  0  0
 14 15  1  0  0  0  0
 14 16  1  0  0  0  0
 14 17  1  0  0  0  0
 17 18  1  0  0  0  0
 17 19  1  0  0  0  0
 17 20  1  0  0  0  0
 20 21  1  0  0  0  0
 20 22  1  0  0  0  0
 20 23  1  0  0  0  0
 23 24  1  0  0  0  0
 23 25  1  0  0  0  0
 23 26  1  0  0  0  0
M  END
> <VM2 Rank>
189

> <Conf_Id>
814

> <Probability>
0.00

> <Sum Probability>
100.00

> <Delta G>
6.722

> <G>
54.983

> <E>
21.952

> <-TS>
33.031

> <U+W>
0.490

> <U>
54.806

> <W>
-54.315

> <W(PB)>
-56.529

> <W(SA)>
2.214

> <Valence>
8.228

> <Coulomb>
46.248

> <VdW>
0.330

> <VdW6>
-9.307

> <VdW12>
9.637

> <Bond>
0.318

> <Angle>
2.922

> <Pdih>
4.988

> <Idih>
0.000

> <Tether>
0.000

$$$$
VeraChem MOL file


 26 25  0  0  0  0  0  0  0  0999 V2000     
   18.7392   18.6864   20.0341 C   0  0  0  0  0  0  0  0  0  0  0  0
   18.8717   19.6815   19.5897 H   0  0  0  0  0  0  0  0  0  0  0  0
   18.6499   17.9611   19.2149 H   0  0  0  0  0  0  0  0  0  0  0  0
   17.7930   18.6839   20.5908 H   0  0  0  0  0  0  0  0  0  0  0  0
   19.9258   18.3270   20.9530 C   0  0  0  0  0  0  0  0  0  0  0  0
   20.8515   18.3038   20.3610 H   0  0  0  0  0  0  0  0  0  0  0  0
   19.7815   17.3139   21.3534 H   0  0  0  0  0  0  0  0  0  0  0  0
   20.0755   19.3356   22.1133 C   0  0  0  0  0  0  0  0  0  0  0  0
   20.2317   20.3421   21.7006 H   0  0  0  0  0  0  0  0  0  0  0  0
   19.1392   19.3837   22.6811 H   0  0  0  0  0  0  0  0  0  0  0  0
   21.2652   18.9780   23.0380 C   0  0  0  0  0  0  0  0  0  0  0  0
   22.1904   19.0862   22.4549 H   0  0  0  0  0  0  0  0  0  0  0  0
   21.2285   17.9234   23.3417 H   0  0  0  0  0  0  0  0  0  0  0  0
   21.3618   19.8907   24.2873 C   0  0  0  0  0  0  0  0  0  0  0  0
   22.4258   20.0623   24.5015 H   0  0  0  0  0  0  0  0  0  0  0  0
   20.9436   20.8822   24.0651 H   0  0  0  0  0  0  0  0  0  0  0  0
   20.7150   19.3201   25.5780 C   0  0  0  0  0  0  0  0  0  0  0  0
   20.9012   20.0353   26.3902 H   0  0  0  0  0  0  0  0  0  0  0  0
   21.2207   18.3920   25.8759 H   0  0  0  0  0  0  0  0  0  0  0  0
   19.1930   19.0833   25.5021 C   0  0  0  0  0  0  0  0  0  0  0  0
   18.7848   19.0573   26.5160 H   0  0  0  0  0  0  0  0  0  0  0  0
   18.7151   19.9066   24.9646 H   0  0  0  0  0  0  0  0  0  0  0  0
   18.8054   17.7779   24.8352 N   0  3  0  0  0  0  0  0  0  0  0  0
   19.1588   17.7319   23.8741 H   0  0  0  0  0  0  0  0  0  0  0  0
   17.7872   17.6582   24.7954 H   0  0  0  0  0  0  0  0  0  0  0  0
   19.1825   16.9685   25.3394 H   0  0  0  0  0  0  0  0  0  0  0  0
  1  2  1  0  0  0  0
  1  3  1  0  0  0  0
  1  4  1  0  0  0  0
  1  5  1  0  0  0  0
  5  6  1  0  0  0  0
  5  7  1  0  0  0  0
  5  8  1  0  0  0  0
  8  9  1  0  0  0  0
  8 10  1  0  0  0  0
  8 11  1  0  0  0  0
 11 12  1  0  0  0  0
 11 13  1  0  0  0  0
 11 14  1  0  0  0  0
 14 15  1  0  0  0  0
 14 16  1  0  0  0  0
 14 17  1  0  0  0  0
 17 18  1  0  0  0  0
 17 19  1  0  0  0  0
 17 20  1  0  0  0  0
 20 21  1  0  0  0  0
 20 22  1  0  0  0  0
 20 23  1  0  0  0  0
 23 24  1  0  0  0  0
 23 25  1  0  0  0  0
 23 26  1  0  0  0  0
M  END
> <VM2 Rank>
190

> <Conf_Id>
1236

> <Probability>
0.00

> <Sum Probability>
100.00

> <Delta G>
6.832

> <G>
55.094

> <E>
21.961

> <-TS>
33.133

> <U+W>
0.499

> <U>
53.726

> <W>
-53.227

> <W(PB)>
-55.471

> <W(SA)>
2.244

> <Valence>
6.198

> <Coulomb>
47.155

> <VdW>
0.373

> <VdW6>
-8.927

> <VdW12>
9.300

> <Bond>
0.233

> <Angle>
1.463

> <Pdih>
4.503

> <Idih>
0.000

> <Tether>
0.000

$$$$
VeraChem MOL file


 26 25  0  0  0  0  0  0  0  0999 V2000     
   20.8798   20.0982   20.1055 C   0  0  0  0  0  0  0  0  0  0  0  0
   21.2278   20.9492   20.7055 H   0  0  0  0  0  0  0  0  0  0  0  0
   21.6192   19.9193   19.3141 H   0  0  0  0  0  0  0  0  0  0  0  0
   19.9344   20.3824   19.6251 H   0  0  0  0  0  0  0  0  0  0  0  0
   20.7012   18.8384   20.9790 C   0  0  0  0  0  0  0  0  0  0  0  0
   21.6698   18.5593   21.4165 H   0  0  0  0  0  0  0  0  0  0  0  0
   20.3866   17.9972   20.3455 H   0  0  0  0  0  0  0  0  0  0  0  0
   19.6621   19.0630   22.0995 C   0  0  0  0  0  0  0  0  0  0  0  0
   19.9592   19.9245   22.7085 H   0  0  0  0  0  0  0  0  0  0  0  0
   18.6955   19.3290   21.6493 H   0  0  0  0  0  0  0  0  0  0  0  0
   19.4803   17.8008   22.9784 C   0  0  0  0  0  0  0  0  0  0  0  0
   20.4493   17.4095   23.3156 H   0  0  0  0  0  0  0  0  0  0  0  0
   19.0448   17.0116   22.3498 H   0  0  0  0  0  0  0  0  0  0  0  0
   18.5460   18.0336   24.1932 C   0  0  0  0  0  0  0  0  0  0  0  0
   17.8098   18.8154   23.9604 H   0  0  0  0  0  0  0  0  0  0  0  0
   17.9606   17.1174   24.3524 H   0  0  0  0  0  0  0  0  0  0  0  0
   19.2639   18.3631   25.5295 C   0  0  0  0  0  0  0  0  0  0  0  0
   19.9040   17.5237   25.8319 H   0  0  0  0  0  0  0  0  0  0  0  0
   18.4961   18.4492   26.3098 H   0  0  0  0  0  0  0  0  0  0  0  0
   20.0827   19.6700   25.5318 C   0  0  0  0  0  0  0  0  0  0  0  0
   19.5392   20.4500   24.9920 H   0  0  0  0  0  0  0  0  0  0  0  0
   20.2196   20.0038   26.5639 H   0  0  0  0  0  0  0  0  0  0  0  0
   21.4650   19.5318   24.9242 N   0  3  0  0  0  0  0  0  0  0  0  0
   21.9765   20.4211   24.9354 H   0  0  0  0  0  0  0  0  0  0  0  0
   21.4132   19.2186   23.9495 H   0  0  0  0  0  0  0  0  0  0  0  0
   22.0368   18.8510   25.4350 H   0  0  0  0  0  0  0  0  0  0  0  0
  1  2  1  0  0  0  0
  1  3  1  0  0  0  0
  1  4  1  0  0  0  0
  1  5  1  0  0  0  0
  5  6  1  0  0  0  0
  5  7  1  0  0  0  0
  5  8  1  0  0  0  0
  8  9  1  0  0  0  0
  8 10  1  0  0  0  0
  8 11  1  0  0  0  0
 11 12  1  0  0  0  0
 11 13  1  0  0  0  0
 11 14  1  0  0  0  0
 14 15  1  0  0  0  0
 14 16  1  0  0  0  0
 14 17  1  0  0  0  0
 17 18  1  0  0  0  0
 17 19  1  0  0  0  0
 17 20  1  0  0  0  0
 20 21  1  0  0  0  0
 20 22  1  0  0  0  0
 20 23  1  0  0  0  0
 23 24  1  0  0  0  0
 23 25  1  0  0  0  0
 23 26  1  0  0  0  0
M  END
> <VM2 Rank>
191

> <Conf_Id>
1044

> <Probability>
0.00

> <Sum Probability>
100.00

> <Delta G>
6.834

> <G>
55.095

> <E>
21.962

> <-TS>
33.133

> <U+W>
0.500

> <U>
53.726

> <W>
-53.226

> <W(PB)>
-55.465

> <W(SA)>
2.239

> <Valence>
6.198

> <Coulomb>
47.155

> <VdW>
0.373

> <VdW6>
-8.927

> <VdW12>
9.300

> <Bond>
0.233

> <Angle>
1.463

> <Pdih>
4.503

> <Idih>
0.000

> <Tether>
0.000

$$$$
VeraChem MOL file


 26 25  0  0  0  0  0  0  0  0999 V2000     
   18.9453   17.9810   20.8857 C   0  0  0  0  0  0  0  0  0  0  0  0
   18.7093   16.9164   20.7595 H   0  0  0  0  0  0  0  0  0  0  0  0
   18.3214   18.3669   21.6990 H   0  0  0  0  0  0  0  0  0  0  0  0
   18.6517   18.4985   19.9633 H   0  0  0  0  0  0  0  0  0  0  0  0
   20.4540   18.1719   21.1668 C   0  0  0  0  0  0  0  0  0  0  0  0
   21.0087   17.7681   20.3083 H   0  0  0  0  0  0  0  0  0  0  0  0
   20.7678   17.5730   22.0322 H   0  0  0  0  0  0  0  0  0  0  0  0
   20.8592   19.6549   21.3600 C   0  0  0  0  0  0  0  0  0  0  0  0
   21.8602   19.7876   20.9266 H   0  0  0  0  0  0  0  0  0  0  0  0
   20.1987   20.3084   20.7737 H   0  0  0  0  0  0  0  0  0  0  0  0
   20.9273   20.1471   22.8311 C   0  0  0  0  0  0  0  0  0  0  0  0
   21.3349   21.1673   22.8115 H   0  0  0  0  0  0  0  0  0  0  0  0
   21.6628   19.5529   23.3882 H   0  0  0  0  0  0  0  0  0  0  0  0
   19.5710   20.1976   23.5845 C   0  0  0  0  0  0  0  0  0  0  0  0
   19.5795   21.0616   24.2635 H   0  0  0  0  0  0  0  0  0  0  0  0
   18.7588   20.3947   22.8723 H   0  0  0  0  0  0  0  0  0  0  0  0
   19.2483   18.9351   24.4234 C   0  0  0  0  0  0  0  0  0  0  0  0
   19.2759   18.0370   23.7969 H   0  0  0  0  0  0  0  0  0  0  0  0
   18.2217   19.0180   24.8041 H   0  0  0  0  0  0  0  0  0  0  0  0
   20.2070   18.7569   25.6159 C   0  0  0  0  0  0  0  0  0  0  0  0
   21.2310   18.6331   25.2549 H   0  0  0  0  0  0  0  0  0  0  0  0
   20.1715   19.6454   26.2520 H   0  0  0  0  0  0  0  0  0  0  0  0
   19.8690   17.5545   26.4735 N   0  3  0  0  0  0  0  0  0  0  0  0
   18.9259   17.6214   26.8701 H   0  0  0  0  0  0  0  0  0  0  0  0
   20.5177   17.4548   27.2619 H   0  0  0  0  0  0  0  0  0  0  0  0
   19.9110   16.6802   25.9398 H   0  0  0  0  0  0  0  0  0  0  0  0
  1  2  1  0  0  0  0
  1  3  1  0  0  0  0
  1  4  1  0  0  0  0
  1  5  1  0  0  0  0
  5  6  1  0  0  0  0
  5  7  1  0  0  0  0
  5  8  1  0  0  0  0
  8  9  1  0  0  0  0
  8 10  1  0  0  0  0
  8 11  1  0  0  0  0
 11 12  1  0  0  0  0
 11 13  1  0  0  0  0
 11 14  1  0  0  0  0
 14 15  1  0  0  0  0
 14 16  1  0  0  0  0
 14 17  1  0  0  0  0
 17 18  1  0  0  0  0
 17 19  1  0  0  0  0
 17 20  1  0  0  0  0
 20 21  1  0  0  0  0
 20 22  1  0  0  0  0
 20 23  1  0  0  0  0
 23 24  1  0  0  0  0
 23 25  1  0  0  0  0
 23 26  1  0  0  0  0
M  END
> <VM2 Rank>
192

> <Conf_Id>
160

> <Probability>
0.00

> <Sum Probability>
100.00

> <Delta G>
6.898

> <G>
55.160

> <E>
21.890

> <-TS>
33.270

> <U+W>
0.428

> <U>
54.562

> <W>
-54.134

> <W(PB)>
-56.362

> <W(SA)>
2.229

> <Valence>
8.177

> <Coulomb>
45.812

> <VdW>
0.572

> <VdW6>
-9.083

> <VdW12>
9.655

> <Bond>
0.296

> <Angle>
2.095

> <Pdih>
5.787

> <Idih>
0.000

> <Tether>
0.000

$$$$
VeraChem MOL file


 26 25  0  0  0  0  0  0  0  0999 V2000     
   18.3478   18.7987   21.5304 C   0  0  0  0  0  0  0  0  0  0  0  0
   18.3419   19.0312   22.5999 H   0  0  0  0  0  0  0  0  0  0  0  0
   17.9831   19.6834   20.9925 H   0  0  0  0  0  0  0  0  0  0  0  0
   17.6298   17.9861   21.3602 H   0  0  0  0  0  0  0  0  0  0  0  0
   19.7540   18.3929   21.0312 C   0  0  0  0  0  0  0  0  0  0  0  0
   19.6802   18.1839   19.9547 H   0  0  0  0  0  0  0  0  0  0  0  0
   20.0755   17.4511   21.4958 H   0  0  0  0  0  0  0  0  0  0  0  0
   20.8229   19.4940   21.2458 C   0  0  0  0  0  0  0  0  0  0  0  0
   21.5186   19.4551   20.3962 H   0  0  0  0  0  0  0  0  0  0  0  0
   20.3581   20.4883   21.1967 H   0  0  0  0  0  0  0  0  0  0  0  0
   21.6717   19.3659   22.5398 C   0  0  0  0  0  0  0  0  0  0  0  0
   22.4502   20.1402   22.4943 H   0  0  0  0  0  0  0  0  0  0  0  0
   22.2124   18.4095   22.5421 H   0  0  0  0  0  0  0  0  0  0  0  0
   20.8996   19.5508   23.8713 C   0  0  0  0  0  0  0  0  0  0  0  0
   21.5647   20.0518   24.5884 H   0  0  0  0  0  0  0  0  0  0  0  0
   20.0534   20.2330   23.7200 H   0  0  0  0  0  0  0  0  0  0  0  0
   20.4378   18.2141   24.5058 C   0  0  0  0  0  0  0  0  0  0  0  0
   21.3136   17.5719   24.6680 H   0  0  0  0  0  0  0  0  0  0  0  0
   19.7759   17.6639   23.8281 H   0  0  0  0  0  0  0  0  0  0  0  0
   19.7294   18.4144   25.8593 C   0  0  0  0  0  0  0  0  0  0  0  0
   19.5170   17.4390   26.3054 H   0  0  0  0  0  0  0  0  0  0  0  0
   20.3850   18.9647   26.5395 H   0  0  0  0  0  0  0  0  0  0  0  0
   18.4179   19.1682   25.7575 N   0  3  0  0  0  0  0  0  0  0  0  0
   17.7454   18.6827   25.1553 H   0  0  0  0  0  0  0  0  0  0  0  0
   18.5499   20.1087   25.3731 H   0  0  0  0  0  0  0  0  0  0  0  0
   17.9723   19.2791   26.6749 H   0  0  0  0  0  0  0  0  0  0  0  0
  1  2  1  0  0  0  0
  1  3  1  0  0  0  0
  1  4  1  0  0  0  0
  1  5  1  0  0  0  0
  5  6  1  0  0  0  0
  5  7  1  0  0  0  0
  5  8  1  0  0  0  0
  8  9  1  0  0  0  0
  8 10  1  0  0  0  0
  8 11  1  0  0  0  0
 11 12  1  0  0  0  0
 11 13  1  0  0  0  0
 11 14  1  0  0  0  0
 14 15  1  0  0  0  0
 14 16  1  0  0  0  0
 14 17  1  0  0  0  0
 17 18  1  0  0  0  0
 17 19  1  0  0  0  0
 17 20  1  0  0  0  0
 20 21  1  0  0  0  0
 20 22  1  0  0  0  0
 20 23  1  0  0  0  0
 23 24  1  0  0  0  0
 23 25  1  0  0  0  0
 23 26  1  0  0  0  0
M  END
> <VM2 Rank>
193

> <Conf_Id>
1308

> <Probability>
0.00

> <Sum Probability>
100.00

> <Delta G>
7.105

> <G>
55.367

> <E>
21.955

> <-TS>
33.412

> <U+W>
0.493

> <U>
54.898

> <W>
-54.405

> <W(PB)>
-56.568

> <W(SA)>
2.163

> <Valence>
7.854

> <Coulomb>
46.637

> <VdW>
0.407

> <VdW6>
-9.363

> <VdW12>
9.769

> <Bond>
0.292

> <Angle>
1.989

> <Pdih>
5.573

> <Idih>
0.000

> <Tether>
0.000

$$$$
VeraChem MOL file


 26 25  0  0  0  0  0  0  0  0999 V2000     
   20.8597   20.4566   21.6144 C   0  0  0  0  0  0  0  0  0  0  0  0
   20.2148   21.1564   21.0673 H   0  0  0  0  0  0  0  0  0  0  0  0
   20.5988   20.5206   22.6755 H   0  0  0  0  0  0  0  0  0  0  0  0
   21.8957   20.8017   21.5028 H   0  0  0  0  0  0  0  0  0  0  0  0
   20.7045   19.0203   21.0630 C   0  0  0  0  0  0  0  0  0  0  0  0
   21.4221   18.3399   21.5408 H   0  0  0  0  0  0  0  0  0  0  0  0
   20.9755   19.0389   19.9981 H   0  0  0  0  0  0  0  0  0  0  0  0
   19.2639   18.4650   21.1937 C   0  0  0  0  0  0  0  0  0  0  0  0
   18.5348   19.2849   21.1356 H   0  0  0  0  0  0  0  0  0  0  0  0
   19.0664   17.8365   20.3142 H   0  0  0  0  0  0  0  0  0  0  0  0
   18.9885   17.5950   22.4501 C   0  0  0  0  0  0  0  0  0  0  0  0
   19.6551   16.7217   22.4566 H   0  0  0  0  0  0  0  0  0  0  0  0
   17.9741   17.1859   22.3447 H   0  0  0  0  0  0  0  0  0  0  0  0
   19.0594   18.3363   23.8097 C   0  0  0  0  0  0  0  0  0  0  0  0
   18.7714   19.3869   23.6771 H   0  0  0  0  0  0  0  0  0  0  0  0
   18.3048   17.9005   24.4794 H   0  0  0  0  0  0  0  0  0  0  0  0
   20.4390   18.2149   24.5059 C   0  0  0  0  0  0  0  0  0  0  0  0
   21.2356   18.6271   23.8769 H   0  0  0  0  0  0  0  0  0  0  0  0
   20.6779   17.1525   24.6470 H   0  0  0  0  0  0  0  0  0  0  0  0
   20.4697   18.9031   25.8840 C   0  0  0  0  0  0  0  0  0  0  0  0
   19.6754   18.4966   26.5158 H   0  0  0  0  0  0  0  0  0  0  0  0
   21.4284   18.7005   26.3694 H   0  0  0  0  0  0  0  0  0  0  0  0
   20.2962   20.4079   25.8202 N   0  3  0  0  0  0  0  0  0  0  0  0
   21.0340   20.8530   25.2651 H   0  0  0  0  0  0  0  0  0  0  0  0
   20.3263   20.8328   26.7534 H   0  0  0  0  0  0  0  0  0  0  0  0
   19.3983   20.6687   25.4012 H   0  0  0  0  0  0  0  0  0  0  0  0
  1  2  1  0  0  0  0
  1  3  1  0  0  0  0
  1  4  1  0  0  0  0
  1  5  1  0  0  0  0
  5  6  1  0  0  0  0
  5  7  1  0  0  0  0
  5  8  1  0  0  0  0
  8  9  1  0  0  0  0
  8 10  1  0  0  0  0
  8 11  1  0  0  0  0
 11 12  1  0  0  0  0
 11 13  1  0  0  0  0
 11 14  1  0  0  0  0
 14 15  1  0  0  0  0
 14 16  1  0  0  0  0
 14 17  1  0  0  0  0
 17 18  1  0  0  0  0
 17 19  1  0  0  0  0
 17 20  1  0  0  0  0
 20 21  1  0  0  0  0
 20 22  1  0  0  0  0
 20 23  1  0  0  0  0
 23 24  1  0  0  0  0
 23 25  1  0  0  0  0
 23 26  1  0  0  0  0
M  END
> <VM2 Rank>
194

> <Conf_Id>
511

> <Probability>
0.00

> <Sum Probability>
100.00

> <Delta G>
7.125

> <G>
55.386

> <E>
21.974

> <-TS>
33.412

> <U+W>
0.512

> <U>
54.898

> <W>
-54.386

> <W(PB)>
-56.583

> <W(SA)>
2.198

> <Valence>
7.854

> <Coulomb>
46.637

> <VdW>
0.407

> <VdW6>
-9.363

> <VdW12>
9.770

> <Bond>
0.292

> <Angle>
1.989

> <Pdih>
5.573

> <Idih>
0.000

> <Tether>
0.000

$$$$
VeraChem MOL file


 26 25  0  0  0  0  0  0  0  0999 V2000     
   20.1609   20.2662   20.8470 C   0  0  0  0  0  0  0  0  0  0  0  0
   21.0243   20.8207   21.2367 H   0  0  0  0  0  0  0  0  0  0  0  0
   19.9600   20.6341   19.8325 H   0  0  0  0  0  0  0  0  0  0  0  0
   19.2902   20.5140   21.4626 H   0  0  0  0  0  0  0  0  0  0  0  0
   20.4432   18.7463   20.8214 C   0  0  0  0  0  0  0  0  0  0  0  0
   21.2650   18.5707   20.1132 H   0  0  0  0  0  0  0  0  0  0  0  0
   19.5765   18.2052   20.4172 H   0  0  0  0  0  0  0  0  0  0  0  0
   20.8527   18.1580   22.1968 C   0  0  0  0  0  0  0  0  0  0  0  0
   21.5371   17.3195   22.0074 H   0  0  0  0  0  0  0  0  0  0  0  0
   21.4414   18.8904   22.7631 H   0  0  0  0  0  0  0  0  0  0  0  0
   19.6775   17.6037   23.0478 C   0  0  0  0  0  0  0  0  0  0  0  0
   20.0822   17.0461   23.9012 H   0  0  0  0  0  0  0  0  0  0  0  0
   19.1384   16.8541   22.4522 H   0  0  0  0  0  0  0  0  0  0  0  0
   18.6523   18.6464   23.5630 C   0  0  0  0  0  0  0  0  0  0  0  0
   18.1094   19.0660   22.7070 H   0  0  0  0  0  0  0  0  0  0  0  0
   17.8905   18.1203   24.1546 H   0  0  0  0  0  0  0  0  0  0  0  0
   19.2280   19.8058   24.4202 C   0  0  0  0  0  0  0  0  0  0  0  0
   18.4051   20.4995   24.6373 H   0  0  0  0  0  0  0  0  0  0  0  0
   19.9646   20.3885   23.8537 H   0  0  0  0  0  0  0  0  0  0  0  0
   19.8282   19.3602   25.7697 C   0  0  0  0  0  0  0  0  0  0  0  0
   19.8634   20.2186   26.4460 H   0  0  0  0  0  0  0  0  0  0  0  0
   19.1900   18.5973   26.2236 H   0  0  0  0  0  0  0  0  0  0  0  0
   21.2382   18.8125   25.6750 N   0  3  0  0  0  0  0  0  0  0  0  0
   21.5877   18.5023   26.5883 H   0  0  0  0  0  0  0  0  0  0  0  0
   21.8955   19.5177   25.3268 H   0  0  0  0  0  0  0  0  0  0  0  0
   21.2881   18.0103   25.0406 H   0  0  0  0  0  0  0  0  0  0  0  0
  1  2  1  0  0  0  0
  1  3  1  0  0  0  0
  1  4  1  0  0  0  0
  1  5  1  0  0  0  0
  5  6  1  0  0  0  0
  5  7  1  0  0  0  0
  5  8  1  0  0  0  0
  8  9  1  0  0  0  0
  8 10  1  0  0  0  0
  8 11  1  0  0  0  0
 11 12  1  0  0  0  0
 11 13  1  0  0  0  0
 11 14  1  0  0  0  0
 14 15  1  0  0  0  0
 14 16  1  0  0  0  0
 14 17  1  0  0  0  0
 17 18  1  0  0  0  0
 17 19  1  0  0  0  0
 17 20  1  0  0  0  0
 20 21  1  0  0  0  0
 20 22  1  0  0  0  0
 20 23  1  0  0  0  0
 23 24  1  0  0  0  0
 23 25  1  0  0  0  0
 23 26  1  0  0  0  0
M  END
> <VM2 Rank>
195

> <Conf_Id>
224

> <Probability>
0.00

> <Sum Probability>
100.00

> <Delta G>
7.345

> <G>
55.606

> <E>
21.952

> <-TS>
33.654

> <U+W>
0.490

> <U>
54.731

> <W>
-54.241

> <W(PB)>
-56.390

> <W(SA)>
2.149

> <Valence>
7.253

> <Coulomb>
47.329

> <VdW>
0.149

> <VdW6>
-10.450

> <VdW12>
10.600

> <Bond>
0.329

> <Angle>
2.593

> <Pdih>
4.331

> <Idih>
0.000

> <Tether>
0.000

$$$$
VeraChem MOL file


 26 25  0  0  0  0  0  0  0  0999 V2000     
   19.9864   19.0382   19.9135 C   0  0  0  0  0  0  0  0  0  0  0  0
   20.5840   18.1854   19.5663 H   0  0  0  0  0  0  0  0  0  0  0  0
   18.9711   18.6836   20.1301 H   0  0  0  0  0  0  0  0  0  0  0  0
   19.9138   19.7563   19.0865 H   0  0  0  0  0  0  0  0  0  0  0  0
   20.6308   19.7027   21.1510 C   0  0  0  0  0  0  0  0  0  0  0  0
   19.9947   20.5264   21.4998 H   0  0  0  0  0  0  0  0  0  0  0  0
   21.5783   20.1678   20.8447 H   0  0  0  0  0  0  0  0  0  0  0  0
   20.9248   18.7134   22.3090 C   0  0  0  0  0  0  0  0  0  0  0  0
   21.6487   17.9680   21.9518 H   0  0  0  0  0  0  0  0  0  0  0  0
   21.4324   19.2647   23.1085 H   0  0  0  0  0  0  0  0  0  0  0  0
   19.6865   17.9643   22.8770 C   0  0  0  0  0  0  0  0  0  0  0  0
   20.0134   17.1663   23.5566 H   0  0  0  0  0  0  0  0  0  0  0  0
   19.1855   17.4385   22.0542 H   0  0  0  0  0  0  0  0  0  0  0  0
   18.6479   18.8652   23.5983 C   0  0  0  0  0  0  0  0  0  0  0  0
   18.6379   19.8729   23.1658 H   0  0  0  0  0  0  0  0  0  0  0  0
   17.6488   18.4546   23.3971 H   0  0  0  0  0  0  0  0  0  0  0  0
   18.8044   18.9614   25.1392 C   0  0  0  0  0  0  0  0  0  0  0  0
   18.6611   17.9738   25.5975 H   0  0  0  0  0  0  0  0  0  0  0  0
   17.9870   19.5882   25.5197 H   0  0  0  0  0  0  0  0  0  0  0  0
   20.1320   19.5762   25.6251 C   0  0  0  0  0  0  0  0  0  0  0  0
   20.4345   20.3855   24.9551 H   0  0  0  0  0  0  0  0  0  0  0  0
   19.9865   19.9975   26.6235 H   0  0  0  0  0  0  0  0  0  0  0  0
   21.2682   18.5776   25.7280 N   0  3  0  0  0  0  0  0  0  0  0  0
   21.0563   17.8306   26.3975 H   0  0  0  0  0  0  0  0  0  0  0  0
   22.1386   19.0216   26.0410 H   0  0  0  0  0  0  0  0  0  0  0  0
   21.4580   18.1322   24.8251 H   0  0  0  0  0  0  0  0  0  0  0  0
  1  2  1  0  0  0  0
  1  3  1  0  0  0  0
  1  4  1  0  0  0  0
  1  5  1  0  0  0  0
  5  6  1  0  0  0  0
  5  7  1  0  0  0  0
  5  8  1  0  0  0  0
  8  9  1  0  0  0  0
  8 10  1  0  0  0  0
  8 11  1  0  0  0  0
 11 12  1  0  0  0  0
 11 13  1  0  0  0  0
 11 14  1  0  0  0  0
 14 15  1  0  0  0  0
 14 16  1  0  0  0  0
 14 17  1  0  0  0  0
 17 18  1  0  0  0  0
 17 19  1  0  0  0  0
 17 20  1  0  0  0  0
 20 21  1  0  0  0  0
 20 22  1  0  0  0  0
 20 23  1  0  0  0  0
 23 24  1  0  0  0  0
 23 25  1  0  0  0  0
 23 26  1  0  0  0  0
M  END
> <VM2 Rank>
196

> <Conf_Id>
247

> <Probability>
0.00

> <Sum Probability>
100.00

> <Delta G>
7.350

> <G>
55.611

> <E>
22.531

> <-TS>
33.080

> <U+W>
1.069

> <U>
55.284

> <W>
-54.215

> <W(PB)>
-56.410

> <W(SA)>
2.195

> <Valence>
7.530

> <Coulomb>
47.065

> <VdW>
0.689

> <VdW6>
-9.872

> <VdW12>
10.561

> <Bond>
0.348

> <Angle>
2.259

> <Pdih>
4.923

> <Idih>
0.000

> <Tether>
0.000

$$$$
VeraChem MOL file


 26 25  0  0  0  0  0  0  0  0999 V2000     
   20.0725   19.0951   19.9164 C   0  0  0  0  0  0  0  0  0  0  0  0
   19.4799   19.4705   19.0721 H   0  0  0  0  0  0  0  0  0  0  0  0
   20.7871   19.8808   20.1908 H   0  0  0  0  0  0  0  0  0  0  0  0
   20.6367   18.2204   19.5680 H   0  0  0  0  0  0  0  0  0  0  0  0
   19.1514   18.7275   21.1018 C   0  0  0  0  0  0  0  0  0  0  0  0
   18.3662   18.0504   20.7377 H   0  0  0  0  0  0  0  0  0  0  0  0
   18.6289   19.6260   21.4544 H   0  0  0  0  0  0  0  0  0  0  0  0
   19.8907   18.0316   22.2745 C   0  0  0  0  0  0  0  0  0  0  0  0
   19.1477   17.7584   23.0323 H   0  0  0  0  0  0  0  0  0  0  0  0
   20.3072   17.0836   21.9069 H   0  0  0  0  0  0  0  0  0  0  0  0
   21.0389   18.8557   22.9222 C   0  0  0  0  0  0  0  0  0  0  0  0
   21.7569   19.1335   22.1400 H   0  0  0  0  0  0  0  0  0  0  0  0
   21.6117   18.2198   23.6099 H   0  0  0  0  0  0  0  0  0  0  0  0
   20.5864   20.1429   23.6630 C   0  0  0  0  0  0  0  0  0  0  0  0
   21.3656   20.9045   23.5214 H   0  0  0  0  0  0  0  0  0  0  0  0
   19.6852   20.5632   23.2006 H   0  0  0  0  0  0  0  0  0  0  0  0
   20.3647   19.9899   25.1913 C   0  0  0  0  0  0  0  0  0  0  0  0
   20.0927   20.9762   25.5900 H   0  0  0  0  0  0  0  0  0  0  0  0
   21.3065   19.7176   25.6859 H   0  0  0  0  0  0  0  0  0  0  0  0
   19.2555   18.9985   25.5956 C   0  0  0  0  0  0  0  0  0  0  0  0
   18.8792   19.2678   26.5863 H   0  0  0  0  0  0  0  0  0  0  0  0
   18.4247   19.0606   24.8877 H   0  0  0  0  0  0  0  0  0  0  0  0
   19.7210   17.5578   25.6762 N   0  3  0  0  0  0  0  0  0  0  0  0
   20.0977   17.2354   24.7797 H   0  0  0  0  0  0  0  0  0  0  0  0
   18.9566   16.9242   25.9345 H   0  0  0  0  0  0  0  0  0  0  0  0
   20.4590   17.4371   26.3777 H   0  0  0  0  0  0  0  0  0  0  0  0
  1  2  1  0  0  0  0
  1  3  1  0  0  0  0
  1  4  1  0  0  0  0
  1  5  1  0  0  0  0
  5  6  1  0  0  0  0
  5  7  1  0  0  0  0
  5  8  1  0  0  0  0
  8  9  1  0  0  0  0
  8 10  1  0  0  0  0
  8 11  1  0  0  0  0
 11 12  1  0  0  0  0
 11 13  1  0  0  0  0
 11 14  1  0  0  0  0
 14 15  1  0  0  0  0
 14 16  1  0  0  0  0
 14 17  1  0  0  0  0
 17 18  1  0  0  0  0
 17 19  1  0  0  0  0
 17 20  1  0  0  0  0
 20 21  1  0  0  0  0
 20 22  1  0  0  0  0
 20 23  1  0  0  0  0
 23 24  1  0  0  0  0
 23 25  1  0  0  0  0
 23 26  1  0  0  0  0
M  END
> <VM2 Rank>
197

> <Conf_Id>
448

> <Probability>
0.00

> <Sum Probability>
100.00

> <Delta G>
7.352

> <G>
55.613

> <E>
22.532

> <-TS>
33.081

> <U+W>
1.070

> <U>
55.284

> <W>
-54.214

> <W(PB)>
-56.421

> <W(SA)>
2.206

> <Valence>
7.530

> <Coulomb>
47.065

> <VdW>
0.689

> <VdW6>
-9.872

> <VdW12>
10.561

> <Bond>
0.348

> <Angle>
2.260

> <Pdih>
4.922

> <Idih>
0.000

> <Tether>
0.000

$$$$
VeraChem MOL file


 26 25  0  0  0  0  0  0  0  0999 V2000     
   18.8328   19.3906   20.8027 C   0  0  0  0  0  0  0  0  0  0  0  0
   18.6210   19.7513   19.7878 H   0  0  0  0  0  0  0  0  0  0  0  0
   17.9662   18.8044   21.1346 H   0  0  0  0  0  0  0  0  0  0  0  0
   18.9187   20.2691   21.4502 H   0  0  0  0  0  0  0  0  0  0  0  0
   20.1190   18.5325   20.8106 C   0  0  0  0  0  0  0  0  0  0  0  0
   20.9753   19.1274   20.4639 H   0  0  0  0  0  0  0  0  0  0  0  0
   19.9903   17.7302   20.0706 H   0  0  0  0  0  0  0  0  0  0  0  0
   20.4343   17.8822   22.1828 C   0  0  0  0  0  0  0  0  0  0  0  0
   19.5041   17.6131   22.6984 H   0  0  0  0  0  0  0  0  0  0  0  0
   20.9443   16.9286   21.9876 H   0  0  0  0  0  0  0  0  0  0  0  0
   21.3656   18.7167   23.1042 C   0  0  0  0  0  0  0  0  0  0  0  0
   22.2935   18.9343   22.5576 H   0  0  0  0  0  0  0  0  0  0  0  0
   21.6789   18.0989   23.9546 H   0  0  0  0  0  0  0  0  0  0  0  0
   20.7868   20.0537   23.6343 C   0  0  0  0  0  0  0  0  0  0  0  0
   21.5418   20.5278   24.2765 H   0  0  0  0  0  0  0  0  0  0  0  0
   20.6546   20.7441   22.7920 H   0  0  0  0  0  0  0  0  0  0  0  0
   19.4560   19.9561   24.4279 C   0  0  0  0  0  0  0  0  0  0  0  0
   18.6577   19.5269   23.8101 H   0  0  0  0  0  0  0  0  0  0  0  0
   19.1322   20.9788   24.6617 H   0  0  0  0  0  0  0  0  0  0  0  0
   19.5667   19.1877   25.7610 C   0  0  0  0  0  0  0  0  0  0  0  0
   20.4970   19.4588   26.2671 H   0  0  0  0  0  0  0  0  0  0  0  0
   18.7331   19.4732   26.4083 H   0  0  0  0  0  0  0  0  0  0  0  0
   19.5198   17.6796   25.6176 N   0  3  0  0  0  0  0  0  0  0  0  0
   20.2663   17.3367   25.0063 H   0  0  0  0  0  0  0  0  0  0  0  0
   18.6300   17.3650   25.2177 H   0  0  0  0  0  0  0  0  0  0  0  0
   19.6249   17.2082   26.5226 H   0  0  0  0  0  0  0  0  0  0  0  0
  1  2  1  0  0  0  0
  1  3  1  0  0  0  0
  1  4  1  0  0  0  0
  1  5  1  0  0  0  0
  5  6  1  0  0  0  0
  5  7  1  0  0  0  0
  5  8  1  0  0  0  0
  8  9  1  0  0  0  0
  8 10  1  0  0  0  0
  8 11  1  0  0  0  0
 11 12  1  0  0  0  0
 11 13  1  0  0  0  0
 11 14  1  0  0  0  0
 14 15  1  0  0  0  0
 14 16  1  0  0  0  0
 14 17  1  0  0  0  0
 17 18  1  0  0  0  0
 17 19  1  0  0  0  0
 17 20  1  0  0  0  0
 20 21  1  0  0  0  0
 20 22  1  0  0  0  0
 20 23  1  0  0  0  0
 23 24  1  0  0  0  0
 23 25  1  0  0  0  0
 23 26  1  0  0  0  0
M  END
> <VM2 Rank>
198

> <Conf_Id>
576

> <Probability>
0.00

> <Sum Probability>
100.00

> <Delta G>
7.359

> <G>
55.620

> <E>
21.966

> <-TS>
33.654

> <U+W>
0.504

> <U>
54.731

> <W>
-54.226

> <W(PB)>
-56.357

> <W(SA)>
2.131

> <Valence>
7.253

> <Coulomb>
47.329

> <VdW>
0.149

> <VdW6>
-10.450

> <VdW12>
10.600

> <Bond>
0.329

> <Angle>
2.592

> <Pdih>
4.331

> <Idih>
0.000

> <Tether>
0.000

$$$$
VeraChem MOL file


 26 25  0  0  0  0  0  0  0  0999 V2000     
   20.3935   18.5150   19.9043 C   0  0  0  0  0  0  0  0  0  0  0  0
   19.6874   17.7058   20.1291 H   0  0  0  0  0  0  0  0  0  0  0  0
   19.8338   19.3452   19.4543 H   0  0  0  0  0  0  0  0  0  0  0  0
   21.0985   18.1386   19.1519 H   0  0  0  0  0  0  0  0  0  0  0  0
   21.1490   18.9763   21.1710 C   0  0  0  0  0  0  0  0  0  0  0  0
   21.9207   19.7022   20.8787 H   0  0  0  0  0  0  0  0  0  0  0  0
   21.6814   18.1224   21.6120 H   0  0  0  0  0  0  0  0  0  0  0  0
   20.2277   19.6286   22.2299 C   0  0  0  0  0  0  0  0  0  0  0  0
   20.8493   20.0261   23.0408 H   0  0  0  0  0  0  0  0  0  0  0  0
   19.7281   20.5014   21.7871 H   0  0  0  0  0  0  0  0  0  0  0  0
   19.1556   18.6602   22.7935 C   0  0  0  0  0  0  0  0  0  0  0  0
   19.5946   17.6856   23.0447 H   0  0  0  0  0  0  0  0  0  0  0  0
   18.4230   18.4608   21.9998 H   0  0  0  0  0  0  0  0  0  0  0  0
   18.3972   19.2373   24.0162 C   0  0  0  0  0  0  0  0  0  0  0  0
   18.3666   20.3342   23.9595 H   0  0  0  0  0  0  0  0  0  0  0  0
   17.3499   18.9110   23.9514 H   0  0  0  0  0  0  0  0  0  0  0  0
   18.9359   18.7924   25.4025 C   0  0  0  0  0  0  0  0  0  0  0  0
   18.8508   17.7028   25.5093 H   0  0  0  0  0  0  0  0  0  0  0  0
   18.2781   19.2201   26.1707 H   0  0  0  0  0  0  0  0  0  0  0  0
   20.3781   19.2362   25.7210 C   0  0  0  0  0  0  0  0  0  0  0  0
   20.5341   20.2634   25.3810 H   0  0  0  0  0  0  0  0  0  0  0  0
   20.5294   19.2099   26.8035 H   0  0  0  0  0  0  0  0  0  0  0  0
   21.4440   18.3531   25.1026 N   0  3  0  0  0  0  0  0  0  0  0  0
   22.3893   18.6853   25.3234 H   0  0  0  0  0  0  0  0  0  0  0  0
   21.3566   18.3263   24.0816 H   0  0  0  0  0  0  0  0  0  0  0  0
   21.3789   17.3875   25.4413 H   0  0  0  0  0  0  0  0  0  0  0  0
  1  2  1  0  0  0  0
  1  3  1  0  0  0  0
  1  4  1  0  0  0  0
  1  5  1  0  0  0  0
  5  6  1  0  0  0  0
  5  7  1  0  0  0  0
  5  8  1  0  0  0  0
  8  9  1  0  0  0  0
  8 10  1  0  0  0  0
  8 11  1  0  0  0  0
 11 12  1  0  0  0  0
 11 13  1  0  0  0  0
 11 14  1  0  0  0  0
 14 15  1  0  0  0  0
 14 16  1  0  0  0  0
 14 17  1  0  0  0  0
 17 18  1  0  0  0  0
 17 19  1  0  0  0  0
 17 20  1  0  0  0  0
 20 21  1  0  0  0  0
 20 22  1  0  0  0  0
 20 23  1  0  0  0  0
 23 24  1  0  0  0  0
 23 25  1  0  0  0  0
 23 26  1  0  0  0  0
M  END
> <VM2 Rank>
199

> <Conf_Id>
810

> <Probability>
0.00

> <Sum Probability>
100.00

> <Delta G>
7.414

> <G>
55.675

> <E>
22.372

> <-TS>
33.303

> <U+W>
0.910

> <U>
54.367

> <W>
-53.457

> <W(PB)>
-55.665

> <W(SA)>
2.207

> <Valence>
6.709

> <Coulomb>
47.139

> <VdW>
0.519

> <VdW6>
-9.576

> <VdW12>
10.096

> <Bond>
0.272

> <Angle>
1.653

> <Pdih>
4.785

> <Idih>
0.000

> <Tether>
0.000

$$$$
VeraChem MOL file


 26 25  0  0  0  0  0  0  0  0999 V2000     
   19.3813   17.8660   20.2179 C   0  0  0  0  0  0  0  0  0  0  0  0
   19.0548   16.8217   20.1290 H   0  0  0  0  0  0  0  0  0  0  0  0
   18.5106   18.5082   20.0319 H   0  0  0  0  0  0  0  0  0  0  0  0
   20.1207   18.0557   19.4289 H   0  0  0  0  0  0  0  0  0  0  0  0
   19.9788   18.1333   21.6155 C   0  0  0  0  0  0  0  0  0  0  0  0
   20.8276   17.4551   21.7793 H   0  0  0  0  0  0  0  0  0  0  0  0
   19.2245   17.8914   22.3714 H   0  0  0  0  0  0  0  0  0  0  0  0
   20.4467   19.6006   21.7615 C   0  0  0  0  0  0  0  0  0  0  0  0
   21.1636   19.8075   20.9548 H   0  0  0  0  0  0  0  0  0  0  0  0
   19.6041   20.2863   21.5975 H   0  0  0  0  0  0  0  0  0  0  0  0
   21.1392   19.9192   23.1133 C   0  0  0  0  0  0  0  0  0  0  0  0
   21.9147   20.6713   22.9116 H   0  0  0  0  0  0  0  0  0  0  0  0
   21.6870   19.0483   23.4902 H   0  0  0  0  0  0  0  0  0  0  0  0
   20.2099   20.5209   24.2021 C   0  0  0  0  0  0  0  0  0  0  0  0
   20.8318   20.8752   25.0359 H   0  0  0  0  0  0  0  0  0  0  0  0
   19.7355   21.4220   23.7895 H   0  0  0  0  0  0  0  0  0  0  0  0
   19.0989   19.6028   24.7753 C   0  0  0  0  0  0  0  0  0  0  0  0
   18.4603   19.2043   23.9794 H   0  0  0  0  0  0  0  0  0  0  0  0
   18.4383   20.2322   25.3862 H   0  0  0  0  0  0  0  0  0  0  0  0
   19.6141   18.4718   25.6908 C   0  0  0  0  0  0  0  0  0  0  0  0
   20.3686   18.8696   26.3747 H   0  0  0  0  0  0  0  0  0  0  0  0
   18.7822   18.0932   26.2908 H   0  0  0  0  0  0  0  0  0  0  0  0
   20.2119   17.2844   24.9647 N   0  3  0  0  0  0  0  0  0  0  0  0
   20.5597   16.5759   25.6202 H   0  0  0  0  0  0  0  0  0  0  0  0
   20.9994   17.5632   24.3733 H   0  0  0  0  0  0  0  0  0  0  0  0
   19.5232   16.8226   24.3627 H   0  0  0  0  0  0  0  0  0  0  0  0
  1  2  1  0  0  0  0
  1  3  1  0  0  0  0
  1  4  1  0  0  0  0
  1  5  1  0  0  0  0
  5  6  1  0  0  0  0
  5  7  1  0  0  0  0
  5  8  1  0  0  0  0
  8  9  1  0  0  0  0
  8 10  1  0  0  0  0
  8 11  1  0  0  0  0
 11 12  1  0  0  0  0
 11 13  1  0  0  0  0
 11 14  1  0  0  0  0
 14 15  1  0  0  0  0
 14 16  1  0  0  0  0
 14 17  1  0  0  0  0
 17 18  1  0  0  0  0
 17 19  1  0  0  0  0
 17 20  1  0  0  0  0
 20 21  1  0  0  0  0
 20 22  1  0  0  0  0
 20 23  1  0  0  0  0
 23 24  1  0  0  0  0
 23 25  1  0  0  0  0
 23 26  1  0  0  0  0
M  END
> <VM2 Rank>
200

> <Conf_Id>
278

> <Probability>
0.00

> <Sum Probability>
100.00

> <Delta G>
7.701

> <G>
55.962

> <E>
22.966

> <-TS>
32.996

> <U+W>
1.504

> <U>
55.487

> <W>
-53.983

> <W(PB)>
-56.187

> <W(SA)>
2.203

> <Valence>
7.292

> <Coulomb>
48.136

> <VdW>
0.060

> <VdW6>
-9.397

> <VdW12>
9.457

> <Bond>
0.292

> <Angle>
2.593

> <Pdih>
4.407

> <Idih>
0.000

> <Tether>
0.000

$$$$
VeraChem MOL file


 26 25  0  0  0  0  0  0  0  0999 V2000     
   18.8603   17.8534   20.9306 C   0  0  0  0  0  0  0  0  0  0  0  0
   17.9570   18.0288   21.5285 H   0  0  0  0  0  0  0  0  0  0  0  0
   18.5386   17.4781   19.9504 H   0  0  0  0  0  0  0  0  0  0  0  0
   19.4477   17.0588   21.4067 H   0  0  0  0  0  0  0  0  0  0  0  0
   19.6804   19.1529   20.7620 C   0  0  0  0  0  0  0  0  0  0  0  0
   19.0732   19.8816   20.2067 H   0  0  0  0  0  0  0  0  0  0  0  0
   20.5655   18.9556   20.1409 H   0  0  0  0  0  0  0  0  0  0  0  0
   20.1143   19.7884   22.1042 C   0  0  0  0  0  0  0  0  0  0  0  0
   20.5243   20.7868   21.8972 H   0  0  0  0  0  0  0  0  0  0  0  0
   19.2324   19.9582   22.7326 H   0  0  0  0  0  0  0  0  0  0  0  0
   21.1929   18.9641   22.8547 C   0  0  0  0  0  0  0  0  0  0  0  0
   22.0987   18.9512   22.2326 H   0  0  0  0  0  0  0  0  0  0  0  0
   20.8988   17.9136   22.9669 H   0  0  0  0  0  0  0  0  0  0  0  0
   21.5568   19.5595   24.2390 C   0  0  0  0  0  0  0  0  0  0  0  0
   22.6346   19.4164   24.3985 H   0  0  0  0  0  0  0  0  0  0  0  0
   21.4025   20.6474   24.2363 H   0  0  0  0  0  0  0  0  0  0  0  0
   20.8202   18.9234   25.4484 C   0  0  0  0  0  0  0  0  0  0  0  0
   21.2010   19.3997   26.3616 H   0  0  0  0  0  0  0  0  0  0  0  0
   21.0829   17.8606   25.5342 H   0  0  0  0  0  0  0  0  0  0  0  0
   19.2863   19.0814   25.4408 C   0  0  0  0  0  0  0  0  0  0  0  0
   18.9076   18.9447   26.4574 H   0  0  0  0  0  0  0  0  0  0  0  0
   19.0184   20.0887   25.1110 H   0  0  0  0  0  0  0  0  0  0  0  0
   18.5696   18.0759   24.5613 N   0  3  0  0  0  0  0  0  0  0  0  0
   17.5535   18.2183   24.5714 H   0  0  0  0  0  0  0  0  0  0  0  0
   18.7405   17.1134   24.8714 H   0  0  0  0  0  0  0  0  0  0  0  0
   18.8846   18.1469   23.5874 H   0  0  0  0  0  0  0  0  0  0  0  0
  1  2  1  0  0  0  0
  1  3  1  0  0  0  0
  1  4  1  0  0  0  0
  1  5  1  0  0  0  0
  5  6  1  0  0  0  0
  5  7  1  0  0  0  0
  5  8  1  0  0  0  0
  8  9  1  0  0  0  0
  8 10  1  0  0  0  0
  8 11  1  0  0  0  0
 11 12  1  0  0  0  0
 11 13  1  0  0  0  0
 11 14  1  0  0  0  0
 14 15  1  0  0  0  0
 14 16  1  0  0  0  0
 14 17  1  0  0  0  0
 17 18  1  0  0  0  0
 17 19  1  0  0  0  0
 17 20  1  0  0  0  0
 20 21  1  0  0  0  0
 20 22  1  0  0  0  0
 20 23  1  0  0  0  0
 23 24  1  0  0  0  0
 23 25  1  0  0  0  0
 23 26  1  0  0  0  0
M  END
> <VM2 Rank>
201

> <Conf_Id>
225

> <Probability>
0.00

> <Sum Probability>
100.00

> <Delta G>
8.481

> <G>
56.742

> <E>
23.152

> <-TS>
33.591

> <U+W>
1.690

> <U>
54.447

> <W>
-52.757

> <W(PB)>
-54.933

> <W(SA)>
2.177

> <Valence>
6.776

> <Coulomb>
47.395

> <VdW>
0.275

> <VdW6>
-10.113

> <VdW12>
10.389

> <Bond>
0.270

> <Angle>
1.774

> <Pdih>
4.732

> <Idih>
0.000

> <Tether>
0.000

$$$$
