VeraChem MOL file


 23 22  0  0  0  0  0  0  0  0999 V2000     
   19.7415   18.6610   26.4278 N   0  3  0  0  0  0  0  0  0  0  0  0
   20.7321   18.4175   26.5284 H   0  0  0  0  0  0  0  0  0  0  0  0
   19.2108   17.7845   26.4591 H   0  0  0  0  0  0  0  0  0  0  0  0
   19.4803   19.1973   27.2623 H   0  0  0  0  0  0  0  0  0  0  0  0
   19.4763   19.4376   25.1540 C   0  0  0  0  0  0  0  0  0  0  0  0
   20.0476   20.3686   25.2013 H   0  0  0  0  0  0  0  0  0  0  0  0
   18.4124   19.6882   25.1268 H   0  0  0  0  0  0  0  0  0  0  0  0
   19.8579   18.6596   23.8821 C   0  0  0  0  0  0  0  0  0  0  0  0
   20.9232   18.3958   23.9215 H   0  0  0  0  0  0  0  0  0  0  0  0
   19.2937   17.7180   23.8472 H   0  0  0  0  0  0  0  0  0  0  0  0
   19.5729   19.4847   22.6077 C   0  0  0  0  0  0  0  0  0  0  0  0
   20.1350   20.4281   22.6489 H   0  0  0  0  0  0  0  0  0  0  0  0
   18.5072   19.7512   22.5748 H   0  0  0  0  0  0  0  0  0  0  0  0
   19.9525   18.7125   21.3237 C   0  0  0  0  0  0  0  0  0  0  0  0
   21.0180   18.4460   21.3565 H   0  0  0  0  0  0  0  0  0  0  0  0
   19.3904   17.7692   21.2823 H   0  0  0  0  0  0  0  0  0  0  0  0
   19.6673   19.5379   20.0493 C   0  0  0  0  0  0  0  0  0  0  0  0
   20.2294   20.4818   20.0849 H   0  0  0  0  0  0  0  0  0  0  0  0
   18.6019   19.8050   20.0107 H   0  0  0  0  0  0  0  0  0  0  0  0
   20.0477   18.7637   18.7693 C   0  0  0  0  0  0  0  0  0  0  0  0
   21.1162   18.5120   18.7630 H   0  0  0  0  0  0  0  0  0  0  0  0
   19.8382   19.3656   17.8755 H   0  0  0  0  0  0  0  0  0  0  0  0
   19.4760   17.8300   18.6882 H   0  0  0  0  0  0  0  0  0  0  0  0
  1  2  1  0  0  0  0
  1  3  1  0  0  0  0
  1  4  1  0  0  0  0
  1  5  1  0  0  0  0
  5  6  1  0  0  0  0
  5  7  1  0  0  0  0
  5  8  1  0  0  0  0
  8  9  1  0  0  0  0
  8 10  1  0  0  0  0
  8 11  1  0  0  0  0
 11 12  1  0  0  0  0
 11 13  1  0  0  0  0
 11 14  1  0  0  0  0
 14 15  1  0  0  0  0
 14 16  1  0  0  0  0
 14 17  1  0  0  0  0
 17 18  1  0  0  0  0
 17 19  1  0  0  0  0
 17 20  1  0  0  0  0
 20 21  1  0  0  0  0
 20 22  1  0  0  0  0
 20 23  1  0  0  0  0
M  END
> <VM2 Rank>
1

> <Conf_Id>
241

> <Probability>
12.96

> <Sum Probability>
12.96

> <Delta G>
0.000

> <G>
37.916

> <E>
10.396

> <-TS>
27.520

> <U+W>
-8.383

> <U>
46.604

> <W>
-54.987

> <W(PB)>
-57.163

> <W(SA)>
2.176

> <Valence>
1.727

> <Coulomb>
44.434

> <VdW>
0.443

> <VdW6>
-4.623

> <VdW12>
5.066

> <Bond>
0.112

> <Angle>
0.386

> <Pdih>
1.228

> <Idih>
0.000

> <Tether>
0.000

$$$$
VeraChem MOL file


 23 22  0  0  0  0  0  0  0  0999 V2000     
   18.7298   18.7423   25.7155 N   0  3  0  0  0  0  0  0  0  0  0  0
   18.4302   19.0734   26.6388 H   0  0  0  0  0  0  0  0  0  0  0  0
   18.7752   17.7195   25.7652 H   0  0  0  0  0  0  0  0  0  0  0  0
   17.9834   18.9809   25.0555 H   0  0  0  0  0  0  0  0  0  0  0  0
   20.0587   19.3465   25.3051 C   0  0  0  0  0  0  0  0  0  0  0  0
   20.7924   19.0857   26.0727 H   0  0  0  0  0  0  0  0  0  0  0  0
   19.9484   20.4342   25.2950 H   0  0  0  0  0  0  0  0  0  0  0  0
   20.5632   18.8635   23.9314 C   0  0  0  0  0  0  0  0  0  0  0  0
   21.5692   19.2723   23.7678 H   0  0  0  0  0  0  0  0  0  0  0  0
   20.6676   17.7703   23.9429 H   0  0  0  0  0  0  0  0  0  0  0  0
   19.6390   19.2961   22.7685 C   0  0  0  0  0  0  0  0  0  0  0  0
   19.5165   20.3881   22.7854 H   0  0  0  0  0  0  0  0  0  0  0  0
   18.6397   18.8612   22.9040 H   0  0  0  0  0  0  0  0  0  0  0  0
   20.2012   18.8613   21.3960 C   0  0  0  0  0  0  0  0  0  0  0  0
   21.1994   19.2978   21.2523 H   0  0  0  0  0  0  0  0  0  0  0  0
   20.3265   17.7697   21.3795 H   0  0  0  0  0  0  0  0  0  0  0  0
   19.2795   19.2914   20.2331 C   0  0  0  0  0  0  0  0  0  0  0  0
   19.1527   20.3831   20.2443 H   0  0  0  0  0  0  0  0  0  0  0  0
   18.2803   18.8549   20.3704 H   0  0  0  0  0  0  0  0  0  0  0  0
   19.8446   18.8559   18.8644 C   0  0  0  0  0  0  0  0  0  0  0  0
   19.1769   19.1699   18.0516 H   0  0  0  0  0  0  0  0  0  0  0  0
   19.9509   17.7645   18.8103 H   0  0  0  0  0  0  0  0  0  0  0  0
   20.8300   19.3047   18.6831 H   0  0  0  0  0  0  0  0  0  0  0  0
  1  2  1  0  0  0  0
  1  3  1  0  0  0  0
  1  4  1  0  0  0  0
  1  5  1  0  0  0  0
  5  6  1  0  0  0  0
  5  7  1  0  0  0  0
  5  8  1  0  0  0  0
  8  9  1  0  0  0  0
  8 10  1  0  0  0  0
  8 11  1  0  0  0  0
 11 12  1  0  0  0  0
 11 13  1  0  0  0  0
 11 14  1  0  0  0  0
 14 15  1  0  0  0  0
 14 16  1  0  0  0  0
 14 17  1  0  0  0  0
 17 18  1  0  0  0  0
 17 19  1  0  0  0  0
 17 20  1  0  0  0  0
 20 21  1  0  0  0  0
 20 22  1  0  0  0  0
 20 23  1  0  0  0  0
M  END
> <VM2 Rank>
2

> <Conf_Id>
514

> <Probability>
7.75

> <Sum Probability>
20.71

> <Delta G>
0.307

> <G>
38.223

> <E>
10.600

> <-TS>
27.622

> <U+W>
-8.179

> <U>
47.288

> <W>
-55.467

> <W(PB)>
-57.600

> <W(SA)>
2.133

> <Valence>
1.833

> <Coulomb>
44.908

> <VdW>
0.548

> <VdW6>
-5.142

> <VdW12>
5.690

> <Bond>
0.133

> <Angle>
0.431

> <Pdih>
1.269

> <Idih>
0.000

> <Tether>
0.000

$$$$
VeraChem MOL file


 23 22  0  0  0  0  0  0  0  0999 V2000     
   19.5097   18.2599   26.0548 N   0  3  0  0  0  0  0  0  0  0  0  0
   20.4067   17.7706   26.1372 H   0  0  0  0  0  0  0  0  0  0  0  0
   18.7901   17.6263   26.4193 H   0  0  0  0  0  0  0  0  0  0  0  0
   19.5461   19.0649   26.6885 H   0  0  0  0  0  0  0  0  0  0  0  0
   19.2220   18.6768   24.6269 C   0  0  0  0  0  0  0  0  0  0  0  0
   18.2433   19.1638   24.6081 H   0  0  0  0  0  0  0  0  0  0  0  0
   19.1675   17.7709   24.0177 H   0  0  0  0  0  0  0  0  0  0  0  0
   20.2860   19.6299   24.0505 C   0  0  0  0  0  0  0  0  0  0  0  0
   20.3621   20.5150   24.6961 H   0  0  0  0  0  0  0  0  0  0  0  0
   21.2692   19.1411   24.0703 H   0  0  0  0  0  0  0  0  0  0  0  0
   19.9615   20.0869   22.6086 C   0  0  0  0  0  0  0  0  0  0  0  0
   20.7077   20.8317   22.2989 H   0  0  0  0  0  0  0  0  0  0  0  0
   18.9889   20.5983   22.5965 H   0  0  0  0  0  0  0  0  0  0  0  0
   19.9520   18.9222   21.5893 C   0  0  0  0  0  0  0  0  0  0  0  0
   20.9140   18.3927   21.6277 H   0  0  0  0  0  0  0  0  0  0  0  0
   19.1764   18.1931   21.8593 H   0  0  0  0  0  0  0  0  0  0  0  0
   19.6977   19.4219   20.1497 C   0  0  0  0  0  0  0  0  0  0  0  0
   20.4736   20.1466   19.8654 H   0  0  0  0  0  0  0  0  0  0  0  0
   18.7366   19.9531   20.1057 H   0  0  0  0  0  0  0  0  0  0  0  0
   19.6871   18.2594   19.1342 C   0  0  0  0  0  0  0  0  0  0  0  0
   20.6484   17.7292   19.1310 H   0  0  0  0  0  0  0  0  0  0  0  0
   19.5056   18.6338   18.1184 H   0  0  0  0  0  0  0  0  0  0  0  0
   18.8976   17.5346   19.3720 H   0  0  0  0  0  0  0  0  0  0  0  0
  1  2  1  0  0  0  0
  1  3  1  0  0  0  0
  1  4  1  0  0  0  0
  1  5  1  0  0  0  0
  5  6  1  0  0  0  0
  5  7  1  0  0  0  0
  5  8  1  0  0  0  0
  8  9  1  0  0  0  0
  8 10  1  0  0  0  0
  8 11  1  0  0  0  0
 11 12  1  0  0  0  0
 11 13  1  0  0  0  0
 11 14  1  0  0  0  0
 14 15  1  0  0  0  0
 14 16  1  0  0  0  0
 14 17  1  0  0  0  0
 17 18  1  0  0  0  0
 17 19  1  0  0  0  0
 17 20  1  0  0  0  0
 20 21  1  0  0  0  0
 20 22  1  0  0  0  0
 20 23  1  0  0  0  0
M  END
> <VM2 Rank>
3

> <Conf_Id>
130

> <Probability>
5.96

> <Sum Probability>
26.67

> <Delta G>
0.463

> <G>
38.379

> <E>
10.761

> <-TS>
27.618

> <U+W>
-8.018

> <U>
47.375

> <W>
-55.393

> <W(PB)>
-57.544

> <W(SA)>
2.152

> <Valence>
2.032

> <Coulomb>
44.843

> <VdW>
0.500

> <VdW6>
-5.218

> <VdW12>
5.718

> <Bond>
0.135

> <Angle>
0.514

> <Pdih>
1.383

> <Idih>
0.000

> <Tether>
0.000

$$$$
VeraChem MOL file


 23 22  0  0  0  0  0  0  0  0999 V2000     
   20.2168   18.5540   26.0871 N   0  3  0  0  0  0  0  0  0  0  0  0
   21.1422   18.6046   26.5265 H   0  0  0  0  0  0  0  0  0  0  0  0
   19.9269   17.5712   26.1154 H   0  0  0  0  0  0  0  0  0  0  0  0
   19.5723   19.0759   26.6897 H   0  0  0  0  0  0  0  0  0  0  0  0
   20.2345   19.0979   24.6730 C   0  0  0  0  0  0  0  0  0  0  0  0
   20.9613   18.5169   24.0995 H   0  0  0  0  0  0  0  0  0  0  0  0
   20.5783   20.1349   24.7145 H   0  0  0  0  0  0  0  0  0  0  0  0
   18.8575   19.0358   23.9854 C   0  0  0  0  0  0  0  0  0  0  0  0
   18.5117   17.9943   23.9446 H   0  0  0  0  0  0  0  0  0  0  0  0
   18.1274   19.5856   24.5942 H   0  0  0  0  0  0  0  0  0  0  0  0
   18.8737   19.6344   22.5590 C   0  0  0  0  0  0  0  0  0  0  0  0
   19.1953   20.6842   22.6059 H   0  0  0  0  0  0  0  0  0  0  0  0
   17.8466   19.6417   22.1685 H   0  0  0  0  0  0  0  0  0  0  0  0
   19.7840   18.8524   21.5817 C   0  0  0  0  0  0  0  0  0  0  0  0
   20.8237   18.8785   21.9342 H   0  0  0  0  0  0  0  0  0  0  0  0
   19.4807   17.7964   21.5625 H   0  0  0  0  0  0  0  0  0  0  0  0
   19.7202   19.4311   20.1507 C   0  0  0  0  0  0  0  0  0  0  0  0
   20.0220   20.4879   20.1641 H   0  0  0  0  0  0  0  0  0  0  0  0
   18.6845   19.4021   19.7840 H   0  0  0  0  0  0  0  0  0  0  0  0
   20.6295   18.6514   19.1771 C   0  0  0  0  0  0  0  0  0  0  0  0
   20.5703   19.0766   18.1668 H   0  0  0  0  0  0  0  0  0  0  0  0
   20.3306   17.5968   19.1167 H   0  0  0  0  0  0  0  0  0  0  0  0
   21.6784   18.6916   19.4985 H   0  0  0  0  0  0  0  0  0  0  0  0
  1  2  1  0  0  0  0
  1  3  1  0  0  0  0
  1  4  1  0  0  0  0
  1  5  1  0  0  0  0
  5  6  1  0  0  0  0
  5  7  1  0  0  0  0
  5  8  1  0  0  0  0
  8  9  1  0  0  0  0
  8 10  1  0  0  0  0
  8 11  1  0  0  0  0
 11 12  1  0  0  0  0
 11 13  1  0  0  0  0
 11 14  1  0  0  0  0
 14 15  1  0  0  0  0
 14 16  1  0  0  0  0
 14 17  1  0  0  0  0
 17 18  1  0  0  0  0
 17 19  1  0  0  0  0
 17 20  1  0  0  0  0
 20 21  1  0  0  0  0
 20 22  1  0  0  0  0
 20 23  1  0  0  0  0
M  END
> <VM2 Rank>
4

> <Conf_Id>
692

> <Probability>
5.33

> <Sum Probability>
32.01

> <Delta G>
0.529

> <G>
38.445

> <E>
10.827

> <-TS>
27.618

> <U+W>
-7.952

> <U>
47.375

> <W>
-55.326

> <W(PB)>
-57.491

> <W(SA)>
2.164

> <Valence>
2.032

> <Coulomb>
44.843

> <VdW>
0.499

> <VdW6>
-5.218

> <VdW12>
5.717

> <Bond>
0.135

> <Angle>
0.514

> <Pdih>
1.383

> <Idih>
0.000

> <Tether>
0.000

$$$$
VeraChem MOL file


 23 22  0  0  0  0  0  0  0  0999 V2000     
   19.5474   18.7522   26.3216 N   0  3  0  0  0  0  0  0  0  0  0  0
   18.8411   18.9694   27.0331 H   0  0  0  0  0  0  0  0  0  0  0  0
   20.4084   19.2339   26.6000 H   0  0  0  0  0  0  0  0  0  0  0  0
   19.7318   17.7456   26.3828 H   0  0  0  0  0  0  0  0  0  0  0  0
   19.0936   19.1608   24.9349 C   0  0  0  0  0  0  0  0  0  0  0  0
   18.8876   20.2345   24.9500 H   0  0  0  0  0  0  0  0  0  0  0  0
   18.1603   18.6348   24.7166 H   0  0  0  0  0  0  0  0  0  0  0  0
   20.1323   18.8479   23.8432 C   0  0  0  0  0  0  0  0  0  0  0  0
   21.0728   19.3650   24.0758 H   0  0  0  0  0  0  0  0  0  0  0  0
   20.3480   17.7711   23.8423 H   0  0  0  0  0  0  0  0  0  0  0  0
   19.6322   19.2791   22.4466 C   0  0  0  0  0  0  0  0  0  0  0  0
   19.4159   20.3564   22.4518 H   0  0  0  0  0  0  0  0  0  0  0  0
   18.6865   18.7648   22.2299 H   0  0  0  0  0  0  0  0  0  0  0  0
   20.6695   18.9646   21.3418 C   0  0  0  0  0  0  0  0  0  0  0  0
   21.6298   19.4270   21.6089 H   0  0  0  0  0  0  0  0  0  0  0  0
   20.8495   17.8814   21.2995 H   0  0  0  0  0  0  0  0  0  0  0  0
   20.2524   19.4739   19.9408 C   0  0  0  0  0  0  0  0  0  0  0  0
   21.0845   19.3064   19.2427 H   0  0  0  0  0  0  0  0  0  0  0  0
   20.0924   20.5607   19.9728 H   0  0  0  0  0  0  0  0  0  0  0  0
   18.9887   18.7786   19.3850 C   0  0  0  0  0  0  0  0  0  0  0  0
   19.1122   17.6880   19.3703 H   0  0  0  0  0  0  0  0  0  0  0  0
   18.7903   19.1076   18.3567 H   0  0  0  0  0  0  0  0  0  0  0  0
   18.1009   19.0166   19.9838 H   0  0  0  0  0  0  0  0  0  0  0  0
  1  2  1  0  0  0  0
  1  3  1  0  0  0  0
  1  4  1  0  0  0  0
  1  5  1  0  0  0  0
  5  6  1  0  0  0  0
  5  7  1  0  0  0  0
  5  8  1  0  0  0  0
  8  9  1  0  0  0  0
  8 10  1  0  0  0  0
  8 11  1  0  0  0  0
 11 12  1  0  0  0  0
 11 13  1  0  0  0  0
 11 14  1  0  0  0  0
 14 15  1  0  0  0  0
 14 16  1  0  0  0  0
 14 17  1  0  0  0  0
 17 18  1  0  0  0  0
 17 19  1  0  0  0  0
 17 20  1  0  0  0  0
 20 21  1  0  0  0  0
 20 22  1  0  0  0  0
 20 23  1  0  0  0  0
M  END
> <VM2 Rank>
5

> <Conf_Id>
548

> <Probability>
4.69

> <Sum Probability>
36.69

> <Delta G>
0.607

> <G>
38.523

> <E>
10.893

> <-TS>
27.630

> <U+W>
-7.886

> <U>
47.264

> <W>
-55.151

> <W(PB)>
-57.313

> <W(SA)>
2.162

> <Valence>
2.234

> <Coulomb>
44.450

> <VdW>
0.580

> <VdW6>
-5.234

> <VdW12>
5.814

> <Bond>
0.148

> <Angle>
0.630

> <Pdih>
1.456

> <Idih>
0.000

> <Tether>
0.000

$$$$
VeraChem MOL file


 23 22  0  0  0  0  0  0  0  0999 V2000     
   19.8213   18.8660   26.3341 N   0  3  0  0  0  0  0  0  0  0  0  0
   18.8543   18.5873   26.5292 H   0  0  0  0  0  0  0  0  0  0  0  0
   20.1080   19.4963   27.0908 H   0  0  0  0  0  0  0  0  0  0  0  0
   20.3998   18.0234   26.4132 H   0  0  0  0  0  0  0  0  0  0  0  0
   19.9580   19.5204   24.9744 C   0  0  0  0  0  0  0  0  0  0  0  0
   21.0024   19.8172   24.8461 H   0  0  0  0  0  0  0  0  0  0  0  0
   19.3411   20.4231   24.9707 H   0  0  0  0  0  0  0  0  0  0  0  0
   19.5352   18.5995   23.8160 C   0  0  0  0  0  0  0  0  0  0  0  0
   20.1463   17.6872   23.8331 H   0  0  0  0  0  0  0  0  0  0  0  0
   18.4908   18.2908   23.9581 H   0  0  0  0  0  0  0  0  0  0  0  0
   19.6892   19.3028   22.4493 C   0  0  0  0  0  0  0  0  0  0  0  0
   20.7340   19.6164   22.3232 H   0  0  0  0  0  0  0  0  0  0  0  0
   19.0780   20.2159   22.4365 H   0  0  0  0  0  0  0  0  0  0  0  0
   19.2693   18.3824   21.2780 C   0  0  0  0  0  0  0  0  0  0  0  0
   19.9129   17.4920   21.2568 H   0  0  0  0  0  0  0  0  0  0  0  0
   18.2470   18.0203   21.4548 H   0  0  0  0  0  0  0  0  0  0  0  0
   19.3103   19.0823   19.8979 C   0  0  0  0  0  0  0  0  0  0  0  0
   18.6510   19.9615   19.9072 H   0  0  0  0  0  0  0  0  0  0  0  0
   18.8985   18.3977   19.1432 H   0  0  0  0  0  0  0  0  0  0  0  0
   20.7328   19.5037   19.4643 C   0  0  0  0  0  0  0  0  0  0  0  0
   21.1415   20.2806   20.1222 H   0  0  0  0  0  0  0  0  0  0  0  0
   20.7190   19.9095   18.4445 H   0  0  0  0  0  0  0  0  0  0  0  0
   21.4191   18.6470   19.4751 H   0  0  0  0  0  0  0  0  0  0  0  0
  1  2  1  0  0  0  0
  1  3  1  0  0  0  0
  1  4  1  0  0  0  0
  1  5  1  0  0  0  0
  5  6  1  0  0  0  0
  5  7  1  0  0  0  0
  5  8  1  0  0  0  0
  8  9  1  0  0  0  0
  8 10  1  0  0  0  0
  8 11  1  0  0  0  0
 11 12  1  0  0  0  0
 11 13  1  0  0  0  0
 11 14  1  0  0  0  0
 14 15  1  0  0  0  0
 14 16  1  0  0  0  0
 14 17  1  0  0  0  0
 17 18  1  0  0  0  0
 17 19  1  0  0  0  0
 17 20  1  0  0  0  0
 20 21  1  0  0  0  0
 20 22  1  0  0  0  0
 20 23  1  0  0  0  0
M  END
> <VM2 Rank>
6

> <Conf_Id>
551

> <Probability>
4.41

> <Sum Probability>
41.10

> <Delta G>
0.643

> <G>
38.559

> <E>
10.928

> <-TS>
27.630

> <U+W>
-7.851

> <U>
47.264

> <W>
-55.115

> <W(PB)>
-57.280

> <W(SA)>
2.165

> <Valence>
2.234

> <Coulomb>
44.451

> <VdW>
0.580

> <VdW6>
-5.234

> <VdW12>
5.814

> <Bond>
0.148

> <Angle>
0.630

> <Pdih>
1.457

> <Idih>
0.000

> <Tether>
0.000

$$$$
VeraChem MOL file


 23 22  0  0  0  0  0  0  0  0999 V2000     
   19.3994   18.2117   26.0666 N   0  3  0  0  0  0  0  0  0  0  0  0
   18.6478   17.5625   25.8130 H   0  0  0  0  0  0  0  0  0  0  0  0
   19.1881   18.5586   27.0085 H   0  0  0  0  0  0  0  0  0  0  0  0
   20.2617   17.6619   26.1384 H   0  0  0  0  0  0  0  0  0  0  0  0
   19.5314   19.3428   25.0671 C   0  0  0  0  0  0  0  0  0  0  0  0
   20.3260   20.0088   25.4143 H   0  0  0  0  0  0  0  0  0  0  0  0
   18.5916   19.9017   25.0636 H   0  0  0  0  0  0  0  0  0  0  0  0
   19.8495   18.8558   23.6422 C   0  0  0  0  0  0  0  0  0  0  0  0
   20.7856   18.2817   23.6537 H   0  0  0  0  0  0  0  0  0  0  0  0
   19.0553   18.1743   23.3125 H   0  0  0  0  0  0  0  0  0  0  0  0
   19.9777   20.0417   22.6573 C   0  0  0  0  0  0  0  0  0  0  0  0
   20.7193   20.7519   23.0492 H   0  0  0  0  0  0  0  0  0  0  0  0
   19.0251   20.5873   22.6082 H   0  0  0  0  0  0  0  0  0  0  0  0
   20.4084   19.6198   21.2308 C   0  0  0  0  0  0  0  0  0  0  0  0
   20.5870   20.5278   20.6385 H   0  0  0  0  0  0  0  0  0  0  0  0
   21.3695   19.0892   21.2779 H   0  0  0  0  0  0  0  0  0  0  0  0
   19.3632   18.7423   20.5020 C   0  0  0  0  0  0  0  0  0  0  0  0
   18.3886   19.2500   20.5002 H   0  0  0  0  0  0  0  0  0  0  0  0
   19.2268   17.7923   21.0355 H   0  0  0  0  0  0  0  0  0  0  0  0
   19.7863   18.4429   19.0480 C   0  0  0  0  0  0  0  0  0  0  0  0
   19.0360   17.8176   18.5469 H   0  0  0  0  0  0  0  0  0  0  0  0
   20.7447   17.9084   19.0181 H   0  0  0  0  0  0  0  0  0  0  0  0
   19.8933   19.3694   18.4687 H   0  0  0  0  0  0  0  0  0  0  0  0
  1  2  1  0  0  0  0
  1  3  1  0  0  0  0
  1  4  1  0  0  0  0
  1  5  1  0  0  0  0
  5  6  1  0  0  0  0
  5  7  1  0  0  0  0
  5  8  1  0  0  0  0
  8  9  1  0  0  0  0
  8 10  1  0  0  0  0
  8 11  1  0  0  0  0
 11 12  1  0  0  0  0
 11 13  1  0  0  0  0
 11 14  1  0  0  0  0
 14 15  1  0  0  0  0
 14 16  1  0  0  0  0
 14 17  1  0  0  0  0
 17 18  1  0  0  0  0
 17 19  1  0  0  0  0
 17 20  1  0  0  0  0
 20 21  1  0  0  0  0
 20 22  1  0  0  0  0
 20 23  1  0  0  0  0
M  END
> <VM2 Rank>
7

> <Conf_Id>
679

> <Probability>
3.82

> <Sum Probability>
44.92

> <Delta G>
0.728

> <G>
38.645

> <E>
11.025

> <-TS>
27.619

> <U+W>
-7.754

> <U>
47.562

> <W>
-55.316

> <W(PB)>
-57.472

> <W(SA)>
2.156

> <Valence>
2.273

> <Coulomb>
44.723

> <VdW>
0.566

> <VdW6>
-5.266

> <VdW12>
5.832

> <Bond>
0.151

> <Angle>
0.657

> <Pdih>
1.466

> <Idih>
0.000

> <Tether>
0.000

$$$$
VeraChem MOL file


 23 22  0  0  0  0  0  0  0  0999 V2000     
   20.3275   18.5978   26.1089 N   0  3  0  0  0  0  0  0  0  0  0  0
   20.1572   18.9616   27.0527 H   0  0  0  0  0  0  0  0  0  0  0  0
   21.3345   18.6802   25.9354 H   0  0  0  0  0  0  0  0  0  0  0  0
   20.1061   17.5971   26.1312 H   0  0  0  0  0  0  0  0  0  0  0  0
   19.5115   19.3345   25.0662 C   0  0  0  0  0  0  0  0  0  0  0  0
   19.7755   20.3943   25.1177 H   0  0  0  0  0  0  0  0  0  0  0  0
   18.4553   19.2303   25.3290 H   0  0  0  0  0  0  0  0  0  0  0  0
   19.7437   18.8118   23.6374 C   0  0  0  0  0  0  0  0  0  0  0  0
   20.8092   18.9043   23.3924 H   0  0  0  0  0  0  0  0  0  0  0  0
   19.4925   17.7437   23.5946 H   0  0  0  0  0  0  0  0  0  0  0  0
   18.8903   19.5894   22.6078 C   0  0  0  0  0  0  0  0  0  0  0  0
   19.1764   20.6503   22.6151 H   0  0  0  0  0  0  0  0  0  0  0  0
   17.8366   19.5525   22.9179 H   0  0  0  0  0  0  0  0  0  0  0  0
   18.9974   19.0328   21.1665 C   0  0  0  0  0  0  0  0  0  0  0  0
   18.6950   17.9765   21.1560 H   0  0  0  0  0  0  0  0  0  0  0  0
   18.2750   19.5659   20.5331 H   0  0  0  0  0  0  0  0  0  0  0  0
   20.4089   19.1774   20.5496 C   0  0  0  0  0  0  0  0  0  0  0  0
   21.1360   18.5868   21.1225 H   0  0  0  0  0  0  0  0  0  0  0  0
   20.7335   20.2257   20.6069 H   0  0  0  0  0  0  0  0  0  0  0  0
   20.4367   18.7134   19.0777 C   0  0  0  0  0  0  0  0  0  0  0  0
   20.1449   17.6586   18.9909 H   0  0  0  0  0  0  0  0  0  0  0  0
   21.4449   18.8197   18.6567 H   0  0  0  0  0  0  0  0  0  0  0  0
   19.7505   19.3096   18.4622 H   0  0  0  0  0  0  0  0  0  0  0  0
  1  2  1  0  0  0  0
  1  3  1  0  0  0  0
  1  4  1  0  0  0  0
  1  5  1  0  0  0  0
  5  6  1  0  0  0  0
  5  7  1  0  0  0  0
  5  8  1  0  0  0  0
  8  9  1  0  0  0  0
  8 10  1  0  0  0  0
  8 11  1  0  0  0  0
 11 12  1  0  0  0  0
 11 13  1  0  0  0  0
 11 14  1  0  0  0  0
 14 15  1  0  0  0  0
 14 16  1  0  0  0  0
 14 17  1  0  0  0  0
 17 18  1  0  0  0  0
 17 19  1  0  0  0  0
 17 20  1  0  0  0  0
 20 21  1  0  0  0  0
 20 22  1  0  0  0  0
 20 23  1  0  0  0  0
M  END
> <VM2 Rank>
8

> <Conf_Id>
712

> <Probability>
3.76

> <Sum Probability>
48.68

> <Delta G>
0.737

> <G>
38.653

> <E>
11.034

> <-TS>
27.619

> <U+W>
-7.745

> <U>
47.562

> <W>
-55.307

> <W(PB)>
-57.451

> <W(SA)>
2.144

> <Valence>
2.273

> <Coulomb>
44.723

> <VdW>
0.566

> <VdW6>
-5.266

> <VdW12>
5.832

> <Bond>
0.151

> <Angle>
0.657

> <Pdih>
1.466

> <Idih>
0.000

> <Tether>
0.000

$$$$
VeraChem MOL file


 23 22  0  0  0  0  0  0  0  0999 V2000     
   19.8904   19.9724   25.5969 N   0  3  0  0  0  0  0  0  0  0  0  0
   20.2013   20.6578   24.9018 H   0  0  0  0  0  0  0  0  0  0  0  0
   20.4151   20.1598   26.4580 H   0  0  0  0  0  0  0  0  0  0  0  0
   18.9051   20.1707   25.7985 H   0  0  0  0  0  0  0  0  0  0  0  0
   20.0917   18.5493   25.1138 C   0  0  0  0  0  0  0  0  0  0  0  0
   19.7778   17.8786   25.9182 H   0  0  0  0  0  0  0  0  0  0  0  0
   21.1607   18.3974   24.9415 H   0  0  0  0  0  0  0  0  0  0  0  0
   19.3065   18.2115   23.8315 C   0  0  0  0  0  0  0  0  0  0  0  0
   19.4344   17.1421   23.6175 H   0  0  0  0  0  0  0  0  0  0  0  0
   18.2340   18.3699   24.0065 H   0  0  0  0  0  0  0  0  0  0  0  0
   19.7730   19.0375   22.6092 C   0  0  0  0  0  0  0  0  0  0  0  0
   20.8532   18.8959   22.4725 H   0  0  0  0  0  0  0  0  0  0  0  0
   19.6111   20.1071   22.7975 H   0  0  0  0  0  0  0  0  0  0  0  0
   19.0207   18.6275   21.3203 C   0  0  0  0  0  0  0  0  0  0  0  0
   19.2233   17.5719   21.0922 H   0  0  0  0  0  0  0  0  0  0  0  0
   17.9388   18.7031   21.4970 H   0  0  0  0  0  0  0  0  0  0  0  0
   19.3797   19.4991   20.0925 C   0  0  0  0  0  0  0  0  0  0  0  0
   19.1564   20.5535   20.3069 H   0  0  0  0  0  0  0  0  0  0  0  0
   18.7297   19.2118   19.2542 H   0  0  0  0  0  0  0  0  0  0  0  0
   20.8540   19.3596   19.6497 C   0  0  0  0  0  0  0  0  0  0  0  0
   21.0322   19.9234   18.7248 H   0  0  0  0  0  0  0  0  0  0  0  0
   21.1111   18.3099   19.4574 H   0  0  0  0  0  0  0  0  0  0  0  0
   21.5422   19.7489   20.4102 H   0  0  0  0  0  0  0  0  0  0  0  0
  1  2  1  0  0  0  0
  1  3  1  0  0  0  0
  1  4  1  0  0  0  0
  1  5  1  0  0  0  0
  5  6  1  0  0  0  0
  5  7  1  0  0  0  0
  5  8  1  0  0  0  0
  8  9  1  0  0  0  0
  8 10  1  0  0  0  0
  8 11  1  0  0  0  0
 11 12  1  0  0  0  0
 11 13  1  0  0  0  0
 11 14  1  0  0  0  0
 14 15  1  0  0  0  0
 14 16  1  0  0  0  0
 14 17  1  0  0  0  0
 17 18  1  0  0  0  0
 17 19  1  0  0  0  0
 17 20  1  0  0  0  0
 20 21  1  0  0  0  0
 20 22  1  0  0  0  0
 20 23  1  0  0  0  0
M  END
> <VM2 Rank>
9

> <Conf_Id>
555

> <Probability>
2.96

> <Sum Probability>
51.64

> <Delta G>
0.881

> <G>
38.797

> <E>
11.062

> <-TS>
27.734

> <U+W>
-7.717

> <U>
47.955

> <W>
-55.672

> <W(PB)>
-57.792

> <W(SA)>
2.120

> <Valence>
2.340

> <Coulomb>
44.939

> <VdW>
0.676

> <VdW6>
-5.763

> <VdW12>
6.440

> <Bond>
0.168

> <Angle>
0.673

> <Pdih>
1.499

> <Idih>
0.000

> <Tether>
0.000

$$$$
VeraChem MOL file


 23 22  0  0  0  0  0  0  0  0999 V2000     
   19.1469   17.8993   25.3648 N   0  3  0  0  0  0  0  0  0  0  0  0
   18.5891   17.5502   24.5796 H   0  0  0  0  0  0  0  0  0  0  0  0
   18.5887   17.7601   26.2139 H   0  0  0  0  0  0  0  0  0  0  0  0
   19.9696   17.2933   25.4457 H   0  0  0  0  0  0  0  0  0  0  0  0
   19.5338   19.3535   25.1782 C   0  0  0  0  0  0  0  0  0  0  0  0
   20.0872   19.6657   26.0680 H   0  0  0  0  0  0  0  0  0  0  0  0
   18.6158   19.9448   25.1234 H   0  0  0  0  0  0  0  0  0  0  0  0
   20.3934   19.6126   23.9256 C   0  0  0  0  0  0  0  0  0  0  0  0
   20.7074   20.6649   23.9324 H   0  0  0  0  0  0  0  0  0  0  0  0
   21.3109   19.0116   23.9797 H   0  0  0  0  0  0  0  0  0  0  0  0
   19.6388   19.3110   22.6089 C   0  0  0  0  0  0  0  0  0  0  0  0
   18.7095   19.8965   22.5776 H   0  0  0  0  0  0  0  0  0  0  0  0
   19.3514   18.2524   22.5860 H   0  0  0  0  0  0  0  0  0  0  0  0
   20.5001   19.6423   21.3663 C   0  0  0  0  0  0  0  0  0  0  0  0
   20.8381   20.6858   21.4314 H   0  0  0  0  0  0  0  0  0  0  0  0
   21.4077   19.0230   21.3686 H   0  0  0  0  0  0  0  0  0  0  0  0
   19.7489   19.4529   20.0262 C   0  0  0  0  0  0  0  0  0  0  0  0
   20.3911   19.8099   19.2089 H   0  0  0  0  0  0  0  0  0  0  0  0
   18.8512   20.0867   20.0104 H   0  0  0  0  0  0  0  0  0  0  0  0
   19.3542   17.9853   19.7441 C   0  0  0  0  0  0  0  0  0  0  0  0
   20.2307   17.3257   19.7852 H   0  0  0  0  0  0  0  0  0  0  0  0
   18.9112   17.8924   18.7441 H   0  0  0  0  0  0  0  0  0  0  0  0
   18.6142   17.6204   20.4670 H   0  0  0  0  0  0  0  0  0  0  0  0
  1  2  1  0  0  0  0
  1  3  1  0  0  0  0
  1  4  1  0  0  0  0
  1  5  1  0  0  0  0
  5  6  1  0  0  0  0
  5  7  1  0  0  0  0
  5  8  1  0  0  0  0
  8  9  1  0  0  0  0
  8 10  1  0  0  0  0
  8 11  1  0  0  0  0
 11 12  1  0  0  0  0
 11 13  1  0  0  0  0
 11 14  1  0  0  0  0
 14 15  1  0  0  0  0
 14 16  1  0  0  0  0
 14 17  1  0  0  0  0
 17 18  1  0  0  0  0
 17 19  1  0  0  0  0
 17 20  1  0  0  0  0
 20 21  1  0  0  0  0
 20 22  1  0  0  0  0
 20 23  1  0  0  0  0
M  END
> <VM2 Rank>
10

> <Conf_Id>
489

> <Probability>
2.77

> <Sum Probability>
54.41

> <Delta G>
0.920

> <G>
38.836

> <E>
11.108

> <-TS>
27.728

> <U+W>
-7.671

> <U>
48.083

> <W>
-55.754

> <W(PB)>
-57.893

> <W(SA)>
2.138

> <Valence>
2.338

> <Coulomb>
45.069

> <VdW>
0.676

> <VdW6>
-5.772

> <VdW12>
6.448

> <Bond>
0.170

> <Angle>
0.671

> <Pdih>
1.498

> <Idih>
0.000

> <Tether>
0.000

$$$$
VeraChem MOL file


 23 22  0  0  0  0  0  0  0  0999 V2000     
   20.4907   18.7130   25.6759 N   0  3  0  0  0  0  0  0  0  0  0  0
   21.1576   19.3962   25.3043 H   0  0  0  0  0  0  0  0  0  0  0  0
   20.8566   17.7813   25.4555 H   0  0  0  0  0  0  0  0  0  0  0  0
   20.5045   18.8057   26.6972 H   0  0  0  0  0  0  0  0  0  0  0  0
   19.0990   18.9206   25.1108 C   0  0  0  0  0  0  0  0  0  0  0  0
   18.7599   19.9184   25.4020 H   0  0  0  0  0  0  0  0  0  0  0  0
   18.4378   18.1861   25.5787 H   0  0  0  0  0  0  0  0  0  0  0  0
   19.0234   18.7737   23.5787 C   0  0  0  0  0  0  0  0  0  0  0  0
   19.3628   17.7687   23.2978 H   0  0  0  0  0  0  0  0  0  0  0  0
   17.9711   18.8479   23.2741 H   0  0  0  0  0  0  0  0  0  0  0  0
   19.8505   19.8530   22.8362 C   0  0  0  0  0  0  0  0  0  0  0  0
   20.9182   19.7321   23.0631 H   0  0  0  0  0  0  0  0  0  0  0  0
   19.5638   20.8444   23.2140 H   0  0  0  0  0  0  0  0  0  0  0  0
   19.6495   19.8361   21.3009 C   0  0  0  0  0  0  0  0  0  0  0  0
   18.5857   19.9801   21.0666 H   0  0  0  0  0  0  0  0  0  0  0  0
   20.1785   20.6979   20.8708 H   0  0  0  0  0  0  0  0  0  0  0  0
   20.1622   18.5427   20.6243 C   0  0  0  0  0  0  0  0  0  0  0  0
   19.5936   17.6751   20.9844 H   0  0  0  0  0  0  0  0  0  0  0  0
   21.2126   18.3716   20.8984 H   0  0  0  0  0  0  0  0  0  0  0  0
   20.0407   18.6179   19.0873 C   0  0  0  0  0  0  0  0  0  0  0  0
   18.9960   18.7590   18.7806 H   0  0  0  0  0  0  0  0  0  0  0  0
   20.4057   17.6921   18.6239 H   0  0  0  0  0  0  0  0  0  0  0  0
   20.6309   19.4513   18.6844 H   0  0  0  0  0  0  0  0  0  0  0  0
  1  2  1  0  0  0  0
  1  3  1  0  0  0  0
  1  4  1  0  0  0  0
  1  5  1  0  0  0  0
  5  6  1  0  0  0  0
  5  7  1  0  0  0  0
  5  8  1  0  0  0  0
  8  9  1  0  0  0  0
  8 10  1  0  0  0  0
  8 11  1  0  0  0  0
 11 12  1  0  0  0  0
 11 13  1  0  0  0  0
 11 14  1  0  0  0  0
 14 15  1  0  0  0  0
 14 16  1  0  0  0  0
 14 17  1  0  0  0  0
 17 18  1  0  0  0  0
 17 19  1  0  0  0  0
 17 20  1  0  0  0  0
 20 21  1  0  0  0  0
 20 22  1  0  0  0  0
 20 23  1  0  0  0  0
M  END
> <VM2 Rank>
11

> <Conf_Id>
282

> <Probability>
2.66

> <Sum Probability>
57.08

> <Delta G>
0.943

> <G>
38.859

> <E>
11.127

> <-TS>
27.732

> <U+W>
-7.652

> <U>
48.113

> <W>
-55.765

> <W(PB)>
-57.862

> <W(SA)>
2.097

> <Valence>
2.372

> <Coulomb>
45.091

> <VdW>
0.651

> <VdW6>
-5.797

> <VdW12>
6.448

> <Bond>
0.172

> <Angle>
0.675

> <Pdih>
1.524

> <Idih>
0.000

> <Tether>
0.000

$$$$
VeraChem MOL file


 23 22  0  0  0  0  0  0  0  0999 V2000     
   18.9993   18.0355   25.1604 N   0  3  0  0  0  0  0  0  0  0  0  0
   18.4309   17.8524   24.3279 H   0  0  0  0  0  0  0  0  0  0  0  0
   18.4354   18.6136   25.7916 H   0  0  0  0  0  0  0  0  0  0  0  0
   19.1452   17.1352   25.6295 H   0  0  0  0  0  0  0  0  0  0  0  0
   20.3122   18.7053   24.8055 C   0  0  0  0  0  0  0  0  0  0  0  0
   20.8751   18.0272   24.1589 H   0  0  0  0  0  0  0  0  0  0  0  0
   20.8787   18.8384   25.7312 H   0  0  0  0  0  0  0  0  0  0  0  0
   20.1430   20.0709   24.1088 C   0  0  0  0  0  0  0  0  0  0  0  0
   19.6168   20.7568   24.7860 H   0  0  0  0  0  0  0  0  0  0  0  0
   21.1370   20.5073   23.9436 H   0  0  0  0  0  0  0  0  0  0  0  0
   19.3850   20.0020   22.7591 C   0  0  0  0  0  0  0  0  0  0  0  0
   19.2951   21.0206   22.3570 H   0  0  0  0  0  0  0  0  0  0  0  0
   18.3585   19.6484   22.9246 H   0  0  0  0  0  0  0  0  0  0  0  0
   20.0859   19.1037   21.7117 C   0  0  0  0  0  0  0  0  0  0  0  0
   21.1199   19.4465   21.5676 H   0  0  0  0  0  0  0  0  0  0  0  0
   20.1418   18.0705   22.0793 H   0  0  0  0  0  0  0  0  0  0  0  0
   19.3459   19.1188   20.3557 C   0  0  0  0  0  0  0  0  0  0  0  0
   19.2925   20.1477   19.9730 H   0  0  0  0  0  0  0  0  0  0  0  0
   18.3101   18.7782   20.4943 H   0  0  0  0  0  0  0  0  0  0  0  0
   20.0448   18.2208   19.3128 C   0  0  0  0  0  0  0  0  0  0  0  0
   21.0732   18.5575   19.1278 H   0  0  0  0  0  0  0  0  0  0  0  0
   19.5055   18.2449   18.3570 H   0  0  0  0  0  0  0  0  0  0  0  0
   20.0824   17.1774   19.6520 H   0  0  0  0  0  0  0  0  0  0  0  0
  1  2  1  0  0  0  0
  1  3  1  0  0  0  0
  1  4  1  0  0  0  0
  1  5  1  0  0  0  0
  5  6  1  0  0  0  0
  5  7  1  0  0  0  0
  5  8  1  0  0  0  0
  8  9  1  0  0  0  0
  8 10  1  0  0  0  0
  8 11  1  0  0  0  0
 11 12  1  0  0  0  0
 11 13  1  0  0  0  0
 11 14  1  0  0  0  0
 14 15  1  0  0  0  0
 14 16  1  0  0  0  0
 14 17  1  0  0  0  0
 17 18  1  0  0  0  0
 17 19  1  0  0  0  0
 17 20  1  0  0  0  0
 20 21  1  0  0  0  0
 20 22  1  0  0  0  0
 20 23  1  0  0  0  0
M  END
> <VM2 Rank>
12

> <Conf_Id>
288

> <Probability>
2.61

> <Sum Probability>
59.69

> <Delta G>
0.955

> <G>
38.871

> <E>
11.067

> <-TS>
27.803

> <U+W>
-7.712

> <U>
48.052

> <W>
-55.763

> <W(PB)>
-57.866

> <W(SA)>
2.103

> <Valence>
2.122

> <Coulomb>
45.428

> <VdW>
0.502

> <VdW6>
-5.941

> <VdW12>
6.443

> <Bond>
0.160

> <Angle>
0.629

> <Pdih>
1.333

> <Idih>
0.000

> <Tether>
0.000

$$$$
VeraChem MOL file


 23 22  0  0  0  0  0  0  0  0999 V2000     
   18.7778   19.5160   25.5463 N   0  3  0  0  0  0  0  0  0  0  0  0
   18.1309   19.8083   24.8076 H   0  0  0  0  0  0  0  0  0  0  0  0
   19.3215   20.3416   25.8173 H   0  0  0  0  0  0  0  0  0  0  0  0
   18.2075   19.2542   26.3576 H   0  0  0  0  0  0  0  0  0  0  0  0
   19.6704   18.3765   25.0946 C   0  0  0  0  0  0  0  0  0  0  0  0
   19.0327   17.5243   24.8448 H   0  0  0  0  0  0  0  0  0  0  0  0
   20.3006   18.0933   25.9421 H   0  0  0  0  0  0  0  0  0  0  0  0
   20.5635   18.7273   23.8887 C   0  0  0  0  0  0  0  0  0  0  0  0
   21.1991   19.5864   24.1413 H   0  0  0  0  0  0  0  0  0  0  0  0
   21.2393   17.8826   23.6996 H   0  0  0  0  0  0  0  0  0  0  0  0
   19.7487   19.0274   22.6081 C   0  0  0  0  0  0  0  0  0  0  0  0
   19.0988   19.8968   22.7742 H   0  0  0  0  0  0  0  0  0  0  0  0
   19.0930   18.1735   22.3924 H   0  0  0  0  0  0  0  0  0  0  0  0
   20.6696   19.3040   21.3953 C   0  0  0  0  0  0  0  0  0  0  0  0
   21.3697   20.1107   21.6531 H   0  0  0  0  0  0  0  0  0  0  0  0
   21.2837   18.4173   21.1859 H   0  0  0  0  0  0  0  0  0  0  0  0
   19.8994   19.7123   20.1162 C   0  0  0  0  0  0  0  0  0  0  0  0
   20.6267   19.9902   19.3405 H   0  0  0  0  0  0  0  0  0  0  0  0
   19.3018   20.6132   20.3136 H   0  0  0  0  0  0  0  0  0  0  0  0
   18.9866   18.5935   19.5647 C   0  0  0  0  0  0  0  0  0  0  0  0
   19.5554   17.6717   19.3865 H   0  0  0  0  0  0  0  0  0  0  0  0
   18.5370   18.8998   18.6113 H   0  0  0  0  0  0  0  0  0  0  0  0
   18.1669   18.3640   20.2566 H   0  0  0  0  0  0  0  0  0  0  0  0
  1  2  1  0  0  0  0
  1  3  1  0  0  0  0
  1  4  1  0  0  0  0
  1  5  1  0  0  0  0
  5  6  1  0  0  0  0
  5  7  1  0  0  0  0
  5  8  1  0  0  0  0
  8  9  1  0  0  0  0
  8 10  1  0  0  0  0
  8 11  1  0  0  0  0
 11 12  1  0  0  0  0
 11 13  1  0  0  0  0
 11 14  1  0  0  0  0
 14 15  1  0  0  0  0
 14 16  1  0  0  0  0
 14 17  1  0  0  0  0
 17 18  1  0  0  0  0
 17 19  1  0  0  0  0
 17 20  1  0  0  0  0
 20 21  1  0  0  0  0
 20 22  1  0  0  0  0
 20 23  1  0  0  0  0
M  END
> <VM2 Rank>
13

> <Conf_Id>
657

> <Probability>
2.61

> <Sum Probability>
62.30

> <Delta G>
0.955

> <G>
38.871

> <E>
11.137

> <-TS>
27.734

> <U+W>
-7.642

> <U>
47.955

> <W>
-55.597

> <W(PB)>
-57.737

> <W(SA)>
2.140

> <Valence>
2.340

> <Coulomb>
44.939

> <VdW>
0.676

> <VdW6>
-5.763

> <VdW12>
6.440

> <Bond>
0.168

> <Angle>
0.673

> <Pdih>
1.499

> <Idih>
0.000

> <Tether>
0.000

$$$$
VeraChem MOL file


 23 22  0  0  0  0  0  0  0  0999 V2000     
   20.8034   18.7862   25.2427 N   0  3  0  0  0  0  0  0  0  0  0  0
   21.3966   19.0864   24.4631 H   0  0  0  0  0  0  0  0  0  0  0  0
   21.3021   18.0328   25.7279 H   0  0  0  0  0  0  0  0  0  0  0  0
   20.7408   19.5730   25.8967 H   0  0  0  0  0  0  0  0  0  0  0  0
   19.4352   18.3404   24.7655 C   0  0  0  0  0  0  0  0  0  0  0  0
   18.8716   18.0033   25.6397 H   0  0  0  0  0  0  0  0  0  0  0  0
   19.5706   17.4844   24.0995 H   0  0  0  0  0  0  0  0  0  0  0  0
   18.6411   19.4459   24.0403 C   0  0  0  0  0  0  0  0  0  0  0  0
   17.6472   19.0552   23.7844 H   0  0  0  0  0  0  0  0  0  0  0  0
   18.4721   20.2804   24.7338 H   0  0  0  0  0  0  0  0  0  0  0  0
   19.3266   19.9776   22.7565 C   0  0  0  0  0  0  0  0  0  0  0  0
   20.2846   20.4497   23.0124 H   0  0  0  0  0  0  0  0  0  0  0  0
   18.6996   20.7728   22.3299 H   0  0  0  0  0  0  0  0  0  0  0  0
   19.5519   18.8815   21.6874 C   0  0  0  0  0  0  0  0  0  0  0  0
   20.2158   18.1012   22.0827 H   0  0  0  0  0  0  0  0  0  0  0  0
   18.5947   18.3958   21.4525 H   0  0  0  0  0  0  0  0  0  0  0  0
   20.1658   19.4599   20.3931 C   0  0  0  0  0  0  0  0  0  0  0  0
   21.1232   19.9486   20.6224 H   0  0  0  0  0  0  0  0  0  0  0  0
   19.5044   20.2359   19.9827 H   0  0  0  0  0  0  0  0  0  0  0  0
   20.3920   18.3653   19.3286 C   0  0  0  0  0  0  0  0  0  0  0  0
   21.0780   17.5916   19.6973 H   0  0  0  0  0  0  0  0  0  0  0  0
   20.8275   18.7951   18.4172 H   0  0  0  0  0  0  0  0  0  0  0  0
   19.4461   17.8807   19.0536 H   0  0  0  0  0  0  0  0  0  0  0  0
  1  2  1  0  0  0  0
  1  3  1  0  0  0  0
  1  4  1  0  0  0  0
  1  5  1  0  0  0  0
  5  6  1  0  0  0  0
  5  7  1  0  0  0  0
  5  8  1  0  0  0  0
  8  9  1  0  0  0  0
  8 10  1  0  0  0  0
  8 11  1  0  0  0  0
 11 12  1  0  0  0  0
 11 13  1  0  0  0  0
 11 14  1  0  0  0  0
 14 15  1  0  0  0  0
 14 16  1  0  0  0  0
 14 17  1  0  0  0  0
 17 18  1  0  0  0  0
 17 19  1  0  0  0  0
 17 20  1  0  0  0  0
 20 21  1  0  0  0  0
 20 22  1  0  0  0  0
 20 23  1  0  0  0  0
M  END
> <VM2 Rank>
14

> <Conf_Id>
700

> <Probability>
2.60

> <Sum Probability>
64.90

> <Delta G>
0.958

> <G>
38.874

> <E>
11.071

> <-TS>
27.803

> <U+W>
-7.708

> <U>
48.051

> <W>
-55.760

> <W(PB)>
-57.854

> <W(SA)>
2.094

> <Valence>
2.122

> <Coulomb>
45.428

> <VdW>
0.502

> <VdW6>
-5.941

> <VdW12>
6.443

> <Bond>
0.160

> <Angle>
0.629

> <Pdih>
1.333

> <Idih>
0.000

> <Tether>
0.000

$$$$
VeraChem MOL file


 23 22  0  0  0  0  0  0  0  0999 V2000     
   20.7806   18.5792   25.4392 N   0  3  0  0  0  0  0  0  0  0  0  0
   20.6261   17.5665   25.4754 H   0  0  0  0  0  0  0  0  0  0  0  0
   21.2049   18.8489   26.3331 H   0  0  0  0  0  0  0  0  0  0  0  0
   21.4800   18.7535   24.7113 H   0  0  0  0  0  0  0  0  0  0  0  0
   19.4935   19.3367   25.1764 C   0  0  0  0  0  0  0  0  0  0  0  0
   19.7231   20.4056   25.1740 H   0  0  0  0  0  0  0  0  0  0  0  0
   18.8151   19.1361   26.0101 H   0  0  0  0  0  0  0  0  0  0  0  0
   18.8040   18.9512   23.8531 C   0  0  0  0  0  0  0  0  0  0  0  0
   18.5815   17.8758   23.8553 H   0  0  0  0  0  0  0  0  0  0  0  0
   17.8380   19.4708   23.8015 H   0  0  0  0  0  0  0  0  0  0  0  0
   19.6494   19.3152   22.6094 C   0  0  0  0  0  0  0  0  0  0  0  0
   20.6024   18.7727   22.6430 H   0  0  0  0  0  0  0  0  0  0  0  0
   19.8896   20.3872   22.6315 H   0  0  0  0  0  0  0  0  0  0  0  0
   18.9066   18.9794   21.2937 C   0  0  0  0  0  0  0  0  0  0  0  0
   18.7078   17.8998   21.2455 H   0  0  0  0  0  0  0  0  0  0  0  0
   17.9255   19.4742   21.2986 H   0  0  0  0  0  0  0  0  0  0  0  0
   19.6720   19.4210   20.0227 C   0  0  0  0  0  0  0  0  0  0  0  0
   19.8546   20.5042   20.0562 H   0  0  0  0  0  0  0  0  0  0  0  0
   19.0319   19.2446   19.1469 H   0  0  0  0  0  0  0  0  0  0  0  0
   21.0100   18.6743   19.8195 C   0  0  0  0  0  0  0  0  0  0  0  0
   20.8585   17.5870   19.8137 H   0  0  0  0  0  0  0  0  0  0  0  0
   21.7317   18.9173   20.6091 H   0  0  0  0  0  0  0  0  0  0  0  0
   21.4643   18.9547   18.8605 H   0  0  0  0  0  0  0  0  0  0  0  0
  1  2  1  0  0  0  0
  1  3  1  0  0  0  0
  1  4  1  0  0  0  0
  1  5  1  0  0  0  0
  5  6  1  0  0  0  0
  5  7  1  0  0  0  0
  5  8  1  0  0  0  0
  8  9  1  0  0  0  0
  8 10  1  0  0  0  0
  8 11  1  0  0  0  0
 11 12  1  0  0  0  0
 11 13  1  0  0  0  0
 11 14  1  0  0  0  0
 14 15  1  0  0  0  0
 14 16  1  0  0  0  0
 14 17  1  0  0  0  0
 17 18  1  0  0  0  0
 17 19  1  0  0  0  0
 17 20  1  0  0  0  0
 20 21  1  0  0  0  0
 20 22  1  0  0  0  0
 20 23  1  0  0  0  0
M  END
> <VM2 Rank>
15

> <Conf_Id>
190

> <Probability>
2.57

> <Sum Probability>
67.47

> <Delta G>
0.965

> <G>
38.881

> <E>
11.153

> <-TS>
27.728

> <U+W>
-7.626

> <U>
48.083

> <W>
-55.710

> <W(PB)>
-57.839

> <W(SA)>
2.130

> <Valence>
2.338

> <Coulomb>
45.069

> <VdW>
0.676

> <VdW6>
-5.773

> <VdW12>
6.449

> <Bond>
0.170

> <Angle>
0.671

> <Pdih>
1.498

> <Idih>
0.000

> <Tether>
0.000

$$$$
VeraChem MOL file


 23 22  0  0  0  0  0  0  0  0999 V2000     
   19.2387   18.1908   25.6189 N   0  3  0  0  0  0  0  0  0  0  0  0
   19.0842   18.2134   26.6326 H   0  0  0  0  0  0  0  0  0  0  0  0
   19.6603   17.2823   25.4011 H   0  0  0  0  0  0  0  0  0  0  0  0
   18.3155   18.2108   25.1751 H   0  0  0  0  0  0  0  0  0  0  0  0
   20.1101   19.3424   25.1568 C   0  0  0  0  0  0  0  0  0  0  0  0
   21.0581   19.2793   25.6980 H   0  0  0  0  0  0  0  0  0  0  0  0
   19.6173   20.2761   25.4410 H   0  0  0  0  0  0  0  0  0  0  0  0
   20.3859   19.3420   23.6408 C   0  0  0  0  0  0  0  0  0  0  0  0
   21.0940   20.1506   23.4162 H   0  0  0  0  0  0  0  0  0  0  0  0
   20.8829   18.4028   23.3671 H   0  0  0  0  0  0  0  0  0  0  0  0
   19.0983   19.5391   22.8020 C   0  0  0  0  0  0  0  0  0  0  0  0
   18.5665   20.4281   23.1686 H   0  0  0  0  0  0  0  0  0  0  0  0
   18.4187   18.6891   22.9492 H   0  0  0  0  0  0  0  0  0  0  0  0
   19.3700   19.7195   21.2881 C   0  0  0  0  0  0  0  0  0  0  0  0
   18.4213   19.9646   20.7908 H   0  0  0  0  0  0  0  0  0  0  0  0
   20.0310   20.5833   21.1325 H   0  0  0  0  0  0  0  0  0  0  0  0
   19.9811   18.4672   20.6159 C   0  0  0  0  0  0  0  0  0  0  0  0
   19.3457   17.5925   20.8132 H   0  0  0  0  0  0  0  0  0  0  0  0
   20.9671   18.2484   21.0469 H   0  0  0  0  0  0  0  0  0  0  0  0
   20.1320   18.6561   19.0914 C   0  0  0  0  0  0  0  0  0  0  0  0
   20.7872   19.5066   18.8622 H   0  0  0  0  0  0  0  0  0  0  0  0
   19.1585   18.8369   18.6173 H   0  0  0  0  0  0  0  0  0  0  0  0
   20.5691   17.7605   18.6312 H   0  0  0  0  0  0  0  0  0  0  0  0
  1  2  1  0  0  0  0
  1  3  1  0  0  0  0
  1  4  1  0  0  0  0
  1  5  1  0  0  0  0
  5  6  1  0  0  0  0
  5  7  1  0  0  0  0
  5  8  1  0  0  0  0
  8  9  1  0  0  0  0
  8 10  1  0  0  0  0
  8 11  1  0  0  0  0
 11 12  1  0  0  0  0
 11 13  1  0  0  0  0
 11 14  1  0  0  0  0
 14 15  1  0  0  0  0
 14 16  1  0  0  0  0
 14 17  1  0  0  0  0
 17 18  1  0  0  0  0
 17 19  1  0  0  0  0
 17 20  1  0  0  0  0
 20 21  1  0  0  0  0
 20 22  1  0  0  0  0
 20 23  1  0  0  0  0
M  END
> <VM2 Rank>
16

> <Conf_Id>
354

> <Probability>
2.43

> <Sum Probability>
69.90

> <Delta G>
0.999

> <G>
38.915

> <E>
11.183

> <-TS>
27.732

> <U+W>
-7.596

> <U>
48.113

> <W>
-55.709

> <W(PB)>
-57.827

> <W(SA)>
2.118

> <Valence>
2.372

> <Coulomb>
45.091

> <VdW>
0.651

> <VdW6>
-5.797

> <VdW12>
6.448

> <Bond>
0.172

> <Angle>
0.675

> <Pdih>
1.524

> <Idih>
0.000

> <Tether>
0.000

$$$$
VeraChem MOL file


 23 22  0  0  0  0  0  0  0  0999 V2000     
   19.4670   18.5298   25.9105 N   0  3  0  0  0  0  0  0  0  0  0  0
   18.6444   18.0571   25.5240 H   0  0  0  0  0  0  0  0  0  0  0  0
   19.2264   18.8162   26.8655 H   0  0  0  0  0  0  0  0  0  0  0  0
   20.2111   17.8291   25.9874 H   0  0  0  0  0  0  0  0  0  0  0  0
   19.8905   19.7109   25.0588 C   0  0  0  0  0  0  0  0  0  0  0  0
   20.7414   20.1868   25.5538 H   0  0  0  0  0  0  0  0  0  0  0  0
   19.0651   20.4276   25.0370 H   0  0  0  0  0  0  0  0  0  0  0  0
   20.2860   19.3310   23.6185 C   0  0  0  0  0  0  0  0  0  0  0  0
   20.6854   20.2285   23.1303 H   0  0  0  0  0  0  0  0  0  0  0  0
   21.1023   18.5970   23.6444 H   0  0  0  0  0  0  0  0  0  0  0  0
   19.0950   18.7731   22.7991 C   0  0  0  0  0  0  0  0  0  0  0  0
   18.2924   19.5224   22.7554 H   0  0  0  0  0  0  0  0  0  0  0  0
   18.6742   17.9005   23.3159 H   0  0  0  0  0  0  0  0  0  0  0  0
   19.4802   18.3418   21.3623 C   0  0  0  0  0  0  0  0  0  0  0  0
   20.2787   17.5883   21.4053 H   0  0  0  0  0  0  0  0  0  0  0  0
   18.6133   17.8453   20.9047 H   0  0  0  0  0  0  0  0  0  0  0  0
   19.9196   19.5172   20.4571 C   0  0  0  0  0  0  0  0  0  0  0  0
   20.8347   19.9787   20.8507 H   0  0  0  0  0  0  0  0  0  0  0  0
   19.1441   20.2959   20.4571 H   0  0  0  0  0  0  0  0  0  0  0  0
   20.1779   19.0532   19.0077 C   0  0  0  0  0  0  0  0  0  0  0  0
   20.4913   19.8977   18.3803 H   0  0  0  0  0  0  0  0  0  0  0  0
   19.2714   18.6221   18.5632 H   0  0  0  0  0  0  0  0  0  0  0  0
   20.9704   18.2944   18.9718 H   0  0  0  0  0  0  0  0  0  0  0  0
  1  2  1  0  0  0  0
  1  3  1  0  0  0  0
  1  4  1  0  0  0  0
  1  5  1  0  0  0  0
  5  6  1  0  0  0  0
  5  7  1  0  0  0  0
  5  8  1  0  0  0  0
  8  9  1  0  0  0  0
  8 10  1  0  0  0  0
  8 11  1  0  0  0  0
 11 12  1  0  0  0  0
 11 13  1  0  0  0  0
 11 14  1  0  0  0  0
 14 15  1  0  0  0  0
 14 16  1  0  0  0  0
 14 17  1  0  0  0  0
 17 18  1  0  0  0  0
 17 19  1  0  0  0  0
 17 20  1  0  0  0  0
 20 21  1  0  0  0  0
 20 22  1  0  0  0  0
 20 23  1  0  0  0  0
M  END
> <VM2 Rank>
17

> <Conf_Id>
561

> <Probability>
2.14

> <Sum Probability>
72.03

> <Delta G>
1.074

> <G>
38.990

> <E>
11.291

> <-TS>
27.700

> <U+W>
-7.489

> <U>
48.041

> <W>
-55.530

> <W(PB)>
-57.678

> <W(SA)>
2.148

> <Valence>
2.405

> <Coulomb>
44.931

> <VdW>
0.705

> <VdW6>
-5.755

> <VdW12>
6.460

> <Bond>
0.178

> <Angle>
0.724

> <Pdih>
1.504

> <Idih>
0.000

> <Tether>
0.000

$$$$
VeraChem MOL file


 23 22  0  0  0  0  0  0  0  0999 V2000     
   20.0669   18.7791   25.9378 N   0  3  0  0  0  0  0  0  0  0  0  0
   21.0090   19.0403   25.6318 H   0  0  0  0  0  0  0  0  0  0  0  0
   20.0346   17.7555   25.9793 H   0  0  0  0  0  0  0  0  0  0  0  0
   19.9590   19.1206   26.8989 H   0  0  0  0  0  0  0  0  0  0  0  0
   18.9996   19.3403   25.0182 C   0  0  0  0  0  0  0  0  0  0  0  0
   19.0734   20.4310   25.0376 H   0  0  0  0  0  0  0  0  0  0  0  0
   18.0269   19.0577   25.4301 H   0  0  0  0  0  0  0  0  0  0  0  0
   19.1026   18.8389   23.5645 C   0  0  0  0  0  0  0  0  0  0  0  0
   19.0472   17.7423   23.5506 H   0  0  0  0  0  0  0  0  0  0  0  0
   18.2247   19.2051   23.0182 H   0  0  0  0  0  0  0  0  0  0  0  0
   20.3972   19.3150   22.8584 C   0  0  0  0  0  0  0  0  0  0  0  0
   21.2703   18.9806   23.4343 H   0  0  0  0  0  0  0  0  0  0  0  0
   20.4335   20.4132   22.8529 H   0  0  0  0  0  0  0  0  0  0  0  0
   20.5437   18.7844   21.4108 C   0  0  0  0  0  0  0  0  0  0  0  0
   21.5391   19.0628   21.0380 H   0  0  0  0  0  0  0  0  0  0  0  0
   20.5135   17.6860   21.4160 H   0  0  0  0  0  0  0  0  0  0  0  0
   19.4731   19.3314   20.4368 C   0  0  0  0  0  0  0  0  0  0  0  0
   19.4659   20.4298   20.4717 H   0  0  0  0  0  0  0  0  0  0  0  0
   18.4735   18.9961   20.7432 H   0  0  0  0  0  0  0  0  0  0  0  0
   19.7328   18.8679   18.9875 C   0  0  0  0  0  0  0  0  0  0  0  0
   20.7087   19.2202   18.6287 H   0  0  0  0  0  0  0  0  0  0  0  0
   18.9634   19.2618   18.3108 H   0  0  0  0  0  0  0  0  0  0  0  0
   19.7168   17.7726   18.9148 H   0  0  0  0  0  0  0  0  0  0  0  0
  1  2  1  0  0  0  0
  1  3  1  0  0  0  0
  1  4  1  0  0  0  0
  1  5  1  0  0  0  0
  5  6  1  0  0  0  0
  5  7  1  0  0  0  0
  5  8  1  0  0  0  0
  8  9  1  0  0  0  0
  8 10  1  0  0  0  0
  8 11  1  0  0  0  0
 11 12  1  0  0  0  0
 11 13  1  0  0  0  0
 11 14  1  0  0  0  0
 14 15  1  0  0  0  0
 14 16  1  0  0  0  0
 14 17  1  0  0  0  0
 17 18  1  0  0  0  0
 17 19  1  0  0  0  0
 17 20  1  0  0  0  0
 20 21  1  0  0  0  0
 20 22  1  0  0  0  0
 20 23  1  0  0  0  0
M  END
> <VM2 Rank>
18

> <Conf_Id>
593

> <Probability>
2.11

> <Sum Probability>
74.15

> <Delta G>
1.081

> <G>
38.997

> <E>
11.297

> <-TS>
27.700

> <U+W>
-7.482

> <U>
48.041

> <W>
-55.523

> <W(PB)>
-57.654

> <W(SA)>
2.131

> <Valence>
2.405

> <Coulomb>
44.931

> <VdW>
0.705

> <VdW6>
-5.755

> <VdW12>
6.460

> <Bond>
0.178

> <Angle>
0.724

> <Pdih>
1.504

> <Idih>
0.000

> <Tether>
0.000

$$$$
VeraChem MOL file


 23 22  0  0  0  0  0  0  0  0999 V2000     
   19.9814   18.5646   26.0724 N   0  3  0  0  0  0  0  0  0  0  0  0
   19.0526   18.5670   26.5062 H   0  0  0  0  0  0  0  0  0  0  0  0
   20.4517   19.4280   26.3625 H   0  0  0  0  0  0  0  0  0  0  0  0
   20.5030   17.7863   26.4897 H   0  0  0  0  0  0  0  0  0  0  0  0
   19.9006   18.4439   24.5642 C   0  0  0  0  0  0  0  0  0  0  0  0
   19.4166   17.4927   24.3270 H   0  0  0  0  0  0  0  0  0  0  0  0
   20.9216   18.4171   24.1748 H   0  0  0  0  0  0  0  0  0  0  0  0
   19.1223   19.5993   23.9070 C   0  0  0  0  0  0  0  0  0  0  0  0
   18.1124   19.6422   24.3364 H   0  0  0  0  0  0  0  0  0  0  0  0
   19.6069   20.5549   24.1477 H   0  0  0  0  0  0  0  0  0  0  0  0
   19.0094   19.4452   22.3720 C   0  0  0  0  0  0  0  0  0  0  0  0
   18.3752   20.2531   21.9819 H   0  0  0  0  0  0  0  0  0  0  0  0
   18.4920   18.5040   22.1430 H   0  0  0  0  0  0  0  0  0  0  0  0
   20.3836   19.4849   21.6568 C   0  0  0  0  0  0  0  0  0  0  0  0
   20.9293   20.3831   21.9774 H   0  0  0  0  0  0  0  0  0  0  0  0
   20.9944   18.6252   21.9636 H   0  0  0  0  0  0  0  0  0  0  0  0
   20.2716   19.5032   20.1132 C   0  0  0  0  0  0  0  0  0  0  0  0
   21.2765   19.6345   19.6880 H   0  0  0  0  0  0  0  0  0  0  0  0
   19.6862   20.3764   19.7929 H   0  0  0  0  0  0  0  0  0  0  0  0
   19.6472   18.2159   19.5283 C   0  0  0  0  0  0  0  0  0  0  0  0
   19.6718   18.2412   18.4312 H   0  0  0  0  0  0  0  0  0  0  0  0
   18.5991   18.1024   19.8319 H   0  0  0  0  0  0  0  0  0  0  0  0
   20.1990   17.3252   19.8558 H   0  0  0  0  0  0  0  0  0  0  0  0
  1  2  1  0  0  0  0
  1  3  1  0  0  0  0
  1  4  1  0  0  0  0
  1  5  1  0  0  0  0
  5  6  1  0  0  0  0
  5  7  1  0  0  0  0
  5  8  1  0  0  0  0
  8  9  1  0  0  0  0
  8 10  1  0  0  0  0
  8 11  1  0  0  0  0
 11 12  1  0  0  0  0
 11 13  1  0  0  0  0
 11 14  1  0  0  0  0
 14 15  1  0  0  0  0
 14 16  1  0  0  0  0
 14 17  1  0  0  0  0
 17 18  1  0  0  0  0
 17 19  1  0  0  0  0
 17 20  1  0  0  0  0
 20 21  1  0  0  0  0
 20 22  1  0  0  0  0
 20 23  1  0  0  0  0
M  END
> <VM2 Rank>
19

> <Conf_Id>
343

> <Probability>
2.02

> <Sum Probability>
76.17

> <Delta G>
1.109

> <G>
39.025

> <E>
11.288

> <-TS>
27.737

> <U+W>
-7.492

> <U>
47.960

> <W>
-55.452

> <W(PB)>
-57.573

> <W(SA)>
2.121

> <Valence>
2.523

> <Coulomb>
44.824

> <VdW>
0.613

> <VdW6>
-5.844

> <VdW12>
6.458

> <Bond>
0.171

> <Angle>
0.728

> <Pdih>
1.624

> <Idih>
0.000

> <Tether>
0.000

$$$$
VeraChem MOL file


 23 22  0  0  0  0  0  0  0  0999 V2000     
   19.6686   18.4346   26.0582 N   0  3  0  0  0  0  0  0  0  0  0  0
   18.7049   18.7018   26.2830 H   0  0  0  0  0  0  0  0  0  0  0  0
   20.2857   19.0795   26.5623 H   0  0  0  0  0  0  0  0  0  0  0  0
   19.8207   17.5026   26.4586 H   0  0  0  0  0  0  0  0  0  0  0  0
   19.9275   18.4551   24.5654 C   0  0  0  0  0  0  0  0  0  0  0  0
   19.2597   17.7262   24.0991 H   0  0  0  0  0  0  0  0  0  0  0  0
   20.9590   18.1340   24.3971 H   0  0  0  0  0  0  0  0  0  0  0  0
   19.7074   19.8426   23.9337 C   0  0  0  0  0  0  0  0  0  0  0  0
   18.6722   20.1664   24.1051 H   0  0  0  0  0  0  0  0  0  0  0  0
   20.3529   20.5737   24.4385 H   0  0  0  0  0  0  0  0  0  0  0  0
   20.0148   19.8633   22.4178 C   0  0  0  0  0  0  0  0  0  0  0  0
   21.0620   19.5727   22.2601 H   0  0  0  0  0  0  0  0  0  0  0  0
   19.9185   20.8949   22.0522 H   0  0  0  0  0  0  0  0  0  0  0  0
   19.0773   18.9417   21.5973 C   0  0  0  0  0  0  0  0  0  0  0  0
   19.2331   17.8928   21.8833 H   0  0  0  0  0  0  0  0  0  0  0  0
   18.0335   19.1789   21.8454 H   0  0  0  0  0  0  0  0  0  0  0  0
   19.2627   19.0836   20.0672 C   0  0  0  0  0  0  0  0  0  0  0  0
   19.0804   20.1245   19.7653 H   0  0  0  0  0  0  0  0  0  0  0  0
   18.4972   18.4787   19.5613 H   0  0  0  0  0  0  0  0  0  0  0  0
   20.6576   18.6361   19.5743 C   0  0  0  0  0  0  0  0  0  0  0  0
   20.8753   17.6065   19.8866 H   0  0  0  0  0  0  0  0  0  0  0  0
   21.4503   19.2881   19.9617 H   0  0  0  0  0  0  0  0  0  0  0  0
   20.7075   18.6719   18.4784 H   0  0  0  0  0  0  0  0  0  0  0  0
  1  2  1  0  0  0  0
  1  3  1  0  0  0  0
  1  4  1  0  0  0  0
  1  5  1  0  0  0  0
  5  6  1  0  0  0  0
  5  7  1  0  0  0  0
  5  8  1  0  0  0  0
  8  9  1  0  0  0  0
  8 10  1  0  0  0  0
  8 11  1  0  0  0  0
 11 12  1  0  0  0  0
 11 13  1  0  0  0  0
 11 14  1  0  0  0  0
 14 15  1  0  0  0  0
 14 16  1  0  0  0  0
 14 17  1  0  0  0  0
 17 18  1  0  0  0  0
 17 19  1  0  0  0  0
 17 20  1  0  0  0  0
 20 21  1  0  0  0  0
 20 22  1  0  0  0  0
 20 23  1  0  0  0  0
M  END
> <VM2 Rank>
20

> <Conf_Id>
490

> <Probability>
2.02

> <Sum Probability>
78.19

> <Delta G>
1.109

> <G>
39.025

> <E>
11.288

> <-TS>
27.737

> <U+W>
-7.491

> <U>
47.960

> <W>
-55.452

> <W(PB)>
-57.583

> <W(SA)>
2.131

> <Valence>
2.523

> <Coulomb>
44.824

> <VdW>
0.613

> <VdW6>
-5.844

> <VdW12>
6.458

> <Bond>
0.171

> <Angle>
0.728

> <Pdih>
1.624

> <Idih>
0.000

> <Tether>
0.000

$$$$
VeraChem MOL file


 23 22  0  0  0  0  0  0  0  0999 V2000     
   19.9328   17.9511   25.5931 N   0  3  0  0  0  0  0  0  0  0  0  0
   19.3936   17.1295   25.3017 H   0  0  0  0  0  0  0  0  0  0  0  0
   19.3982   18.4153   26.3344 H   0  0  0  0  0  0  0  0  0  0  0  0
   20.7972   17.6038   26.0222 H   0  0  0  0  0  0  0  0  0  0  0  0
   20.2158   18.8830   24.4324 C   0  0  0  0  0  0  0  0  0  0  0  0
   20.8108   18.3336   23.6982 H   0  0  0  0  0  0  0  0  0  0  0  0
   20.8152   19.7171   24.8070 H   0  0  0  0  0  0  0  0  0  0  0  0
   18.9368   19.4227   23.7653 C   0  0  0  0  0  0  0  0  0  0  0  0
   18.3291   18.5857   23.3984 H   0  0  0  0  0  0  0  0  0  0  0  0
   18.3274   19.9362   24.5209 H   0  0  0  0  0  0  0  0  0  0  0  0
   19.2343   20.4102   22.6094 C   0  0  0  0  0  0  0  0  0  0  0  0
   19.7236   21.3033   23.0222 H   0  0  0  0  0  0  0  0  0  0  0  0
   18.2829   20.7575   22.1833 H   0  0  0  0  0  0  0  0  0  0  0  0
   20.1212   19.8383   21.4730 C   0  0  0  0  0  0  0  0  0  0  0  0
   20.2844   20.6310   20.7298 H   0  0  0  0  0  0  0  0  0  0  0  0
   21.1151   19.5825   21.8642 H   0  0  0  0  0  0  0  0  0  0  0  0
   19.5060   18.6070   20.7670 C   0  0  0  0  0  0  0  0  0  0  0  0
   18.4943   18.8494   20.4128 H   0  0  0  0  0  0  0  0  0  0  0  0
   19.4046   17.7749   21.4764 H   0  0  0  0  0  0  0  0  0  0  0  0
   20.3691   18.1447   19.5738 C   0  0  0  0  0  0  0  0  0  0  0  0
   21.3792   17.8665   19.9019 H   0  0  0  0  0  0  0  0  0  0  0  0
   20.4607   18.9386   18.8212 H   0  0  0  0  0  0  0  0  0  0  0  0
   19.9201   17.2694   19.0867 H   0  0  0  0  0  0  0  0  0  0  0  0
  1  2  1  0  0  0  0
  1  3  1  0  0  0  0
  1  4  1  0  0  0  0
  1  5  1  0  0  0  0
  5  6  1  0  0  0  0
  5  7  1  0  0  0  0
  5  8  1  0  0  0  0
  8  9  1  0  0  0  0
  8 10  1  0  0  0  0
  8 11  1  0  0  0  0
 11 12  1  0  0  0  0
 11 13  1  0  0  0  0
 11 14  1  0  0  0  0
 14 15  1  0  0  0  0
 14 16  1  0  0  0  0
 14 17  1  0  0  0  0
 17 18  1  0  0  0  0
 17 19  1  0  0  0  0
 17 20  1  0  0  0  0
 20 21  1  0  0  0  0
 20 22  1  0  0  0  0
 20 23  1  0  0  0  0
M  END
> <VM2 Rank>
21

> <Conf_Id>
698

> <Probability>
1.86

> <Sum Probability>
80.04

> <Delta G>
1.158

> <G>
39.074

> <E>
11.221

> <-TS>
27.852

> <U+W>
-7.558

> <U>
48.231

> <W>
-55.788

> <W(PB)>
-57.904

> <W(SA)>
2.116

> <Valence>
2.496

> <Coulomb>
45.257

> <VdW>
0.478

> <VdW6>
-6.161

> <VdW12>
6.639

> <Bond>
0.180

> <Angle>
0.891

> <Pdih>
1.425

> <Idih>
0.000

> <Tether>
0.000

$$$$
VeraChem MOL file


 23 22  0  0  0  0  0  0  0  0999 V2000     
   19.9353   19.0091   26.1816 N   0  3  0  0  0  0  0  0  0  0  0  0
   19.0998   18.5651   26.5762 H   0  0  0  0  0  0  0  0  0  0  0  0
   20.1650   19.8036   26.7883 H   0  0  0  0  0  0  0  0  0  0  0  0
   20.7037   18.3362   26.2682 H   0  0  0  0  0  0  0  0  0  0  0  0
   19.7210   19.4410   24.7452 C   0  0  0  0  0  0  0  0  0  0  0  0
   20.6362   19.9308   24.4029 H   0  0  0  0  0  0  0  0  0  0  0  0
   18.9113   20.1756   24.7309 H   0  0  0  0  0  0  0  0  0  0  0  0
   19.3736   18.2687   23.8081 C   0  0  0  0  0  0  0  0  0  0  0  0
   20.1871   17.5312   23.8212 H   0  0  0  0  0  0  0  0  0  0  0  0
   18.4803   17.7577   24.1912 H   0  0  0  0  0  0  0  0  0  0  0  0
   19.1059   18.7219   22.3533 C   0  0  0  0  0  0  0  0  0  0  0  0
   18.2851   19.4523   22.3423 H   0  0  0  0  0  0  0  0  0  0  0  0
   18.7565   17.8523   21.7817 H   0  0  0  0  0  0  0  0  0  0  0  0
   20.3556   19.3283   21.6655 C   0  0  0  0  0  0  0  0  0  0  0  0
   20.7191   20.1828   22.2512 H   0  0  0  0  0  0  0  0  0  0  0  0
   21.1694   18.5900   21.6582 H   0  0  0  0  0  0  0  0  0  0  0  0
   20.0880   19.8150   20.2205 C   0  0  0  0  0  0  0  0  0  0  0  0
   20.9847   20.3328   19.8521 H   0  0  0  0  0  0  0  0  0  0  0  0
   19.2817   20.5618   20.2229 H   0  0  0  0  0  0  0  0  0  0  0  0
   19.7366   18.6730   19.2398 C   0  0  0  0  0  0  0  0  0  0  0  0
   19.6534   19.0587   18.2155 H   0  0  0  0  0  0  0  0  0  0  0  0
   18.7782   18.2035   19.4931 H   0  0  0  0  0  0  0  0  0  0  0  0
   20.5125   17.8964   19.2435 H   0  0  0  0  0  0  0  0  0  0  0  0
  1  2  1  0  0  0  0
  1  3  1  0  0  0  0
  1  4  1  0  0  0  0
  1  5  1  0  0  0  0
  5  6  1  0  0  0  0
  5  7  1  0  0  0  0
  5  8  1  0  0  0  0
  8  9  1  0  0  0  0
  8 10  1  0  0  0  0
  8 11  1  0  0  0  0
 11 12  1  0  0  0  0
 11 13  1  0  0  0  0
 11 14  1  0  0  0  0
 14 15  1  0  0  0  0
 14 16  1  0  0  0  0
 14 17  1  0  0  0  0
 17 18  1  0  0  0  0
 17 19  1  0  0  0  0
 17 20  1  0  0  0  0
 20 21  1  0  0  0  0
 20 22  1  0  0  0  0
 20 23  1  0  0  0  0
M  END
> <VM2 Rank>
22

> <Conf_Id>
568

> <Probability>
1.86

> <Sum Probability>
81.90

> <Delta G>
1.159

> <G>
39.075

> <E>
11.370

> <-TS>
27.705

> <U+W>
-7.409

> <U>
48.047

> <W>
-55.456

> <W(PB)>
-57.595

> <W(SA)>
2.138

> <Valence>
2.583

> <Coulomb>
44.791

> <VdW>
0.673

> <VdW6>
-5.789

> <VdW12>
6.462

> <Bond>
0.177

> <Angle>
0.787

> <Pdih>
1.619

> <Idih>
0.000

> <Tether>
0.000

$$$$
VeraChem MOL file


 23 22  0  0  0  0  0  0  0  0999 V2000     
   20.1748   18.0517   25.6039 N   0  3  0  0  0  0  0  0  0  0  0  0
   20.1637   18.7336   26.3692 H   0  0  0  0  0  0  0  0  0  0  0  0
   21.1576   17.8637   25.3818 H   0  0  0  0  0  0  0  0  0  0  0  0
   19.7811   17.1806   25.9756 H   0  0  0  0  0  0  0  0  0  0  0  0
   19.4061   18.5460   24.3954 C   0  0  0  0  0  0  0  0  0  0  0  0
   18.3657   18.6976   24.6954 H   0  0  0  0  0  0  0  0  0  0  0  0
   19.4345   17.7609   23.6353 H   0  0  0  0  0  0  0  0  0  0  0  0
   19.9730   19.8541   23.8126 C   0  0  0  0  0  0  0  0  0  0  0  0
   19.9782   20.6234   24.5962 H   0  0  0  0  0  0  0  0  0  0  0  0
   21.0206   19.7061   23.5211 H   0  0  0  0  0  0  0  0  0  0  0  0
   19.1545   20.3771   22.6057 C   0  0  0  0  0  0  0  0  0  0  0  0
   19.6092   21.3095   22.2437 H   0  0  0  0  0  0  0  0  0  0  0  0
   18.1466   20.6470   22.9503 H   0  0  0  0  0  0  0  0  0  0  0  0
   19.0254   19.3822   21.4231 C   0  0  0  0  0  0  0  0  0  0  0  0
   18.4787   18.4853   21.7440 H   0  0  0  0  0  0  0  0  0  0  0  0
   18.4072   19.8497   20.6442 H   0  0  0  0  0  0  0  0  0  0  0  0
   20.3839   18.9724   20.8071 C   0  0  0  0  0  0  0  0  0  0  0  0
   20.9893   18.4344   21.5488 H   0  0  0  0  0  0  0  0  0  0  0  0
   20.9496   19.8713   20.5248 H   0  0  0  0  0  0  0  0  0  0  0  0
   20.1983   18.0735   19.5662 C   0  0  0  0  0  0  0  0  0  0  0  0
   19.6301   18.5928   18.7834 H   0  0  0  0  0  0  0  0  0  0  0  0
   19.6611   17.1513   19.8238 H   0  0  0  0  0  0  0  0  0  0  0  0
   21.1710   17.7899   19.1439 H   0  0  0  0  0  0  0  0  0  0  0  0
  1  2  1  0  0  0  0
  1  3  1  0  0  0  0
  1  4  1  0  0  0  0
  1  5  1  0  0  0  0
  5  6  1  0  0  0  0
  5  7  1  0  0  0  0
  5  8  1  0  0  0  0
  8  9  1  0  0  0  0
  8 10  1  0  0  0  0
  8 11  1  0  0  0  0
 11 12  1  0  0  0  0
 11 13  1  0  0  0  0
 11 14  1  0  0  0  0
 14 15  1  0  0  0  0
 14 16  1  0  0  0  0
 14 17  1  0  0  0  0
 17 18  1  0  0  0  0
 17 19  1  0  0  0  0
 17 20  1  0  0  0  0
 20 21  1  0  0  0  0
 20 22  1  0  0  0  0
 20 23  1  0  0  0  0
M  END
> <VM2 Rank>
23

> <Conf_Id>
345

> <Probability>
1.79

> <Sum Probability>
83.69

> <Delta G>
1.179

> <G>
39.095

> <E>
11.242

> <-TS>
27.853

> <U+W>
-7.537

> <U>
48.231

> <W>
-55.767

> <W(PB)>
-57.889

> <W(SA)>
2.121

> <Valence>
2.496

> <Coulomb>
45.257

> <VdW>
0.478

> <VdW6>
-6.161

> <VdW12>
6.639

> <Bond>
0.180

> <Angle>
0.891

> <Pdih>
1.425

> <Idih>
0.000

> <Tether>
0.000

$$$$
VeraChem MOL file


 23 22  0  0  0  0  0  0  0  0999 V2000     
   19.3779   18.7773   26.1562 N   0  3  0  0  0  0  0  0  0  0  0  0
   18.6072   19.1556   26.7173 H   0  0  0  0  0  0  0  0  0  0  0  0
   20.2481   19.0427   26.6286 H   0  0  0  0  0  0  0  0  0  0  0  0
   19.3082   17.7557   26.2046 H   0  0  0  0  0  0  0  0  0  0  0  0
   19.3340   19.2800   24.7276 C   0  0  0  0  0  0  0  0  0  0  0  0
   19.3835   20.3720   24.7524 H   0  0  0  0  0  0  0  0  0  0  0  0
   18.3713   18.9887   24.2997 H   0  0  0  0  0  0  0  0  0  0  0  0
   20.4804   18.7290   23.8585 C   0  0  0  0  0  0  0  0  0  0  0  0
   21.4396   18.9885   24.3260 H   0  0  0  0  0  0  0  0  0  0  0  0
   20.4304   17.6323   23.8323 H   0  0  0  0  0  0  0  0  0  0  0  0
   20.4603   19.2853   22.4150 C   0  0  0  0  0  0  0  0  0  0  0  0
   21.3655   18.9374   21.9005 H   0  0  0  0  0  0  0  0  0  0  0  0
   20.5205   20.3821   22.4442 H   0  0  0  0  0  0  0  0  0  0  0  0
   19.2071   18.8507   21.6131 C   0  0  0  0  0  0  0  0  0  0  0  0
   19.1588   17.7540   21.5666 H   0  0  0  0  0  0  0  0  0  0  0  0
   18.3015   19.1776   22.1410 H   0  0  0  0  0  0  0  0  0  0  0  0
   19.1625   19.4301   20.1783 C   0  0  0  0  0  0  0  0  0  0  0  0
   19.1998   20.5277   20.2191 H   0  0  0  0  0  0  0  0  0  0  0  0
   18.1951   19.1726   19.7249 H   0  0  0  0  0  0  0  0  0  0  0  0
   20.2938   18.9046   19.2653 C   0  0  0  0  0  0  0  0  0  0  0  0
   20.1586   19.2687   18.2386 H   0  0  0  0  0  0  0  0  0  0  0  0
   20.2986   17.8073   19.2339 H   0  0  0  0  0  0  0  0  0  0  0  0
   21.2794   19.2437   19.6071 H   0  0  0  0  0  0  0  0  0  0  0  0
  1  2  1  0  0  0  0
  1  3  1  0  0  0  0
  1  4  1  0  0  0  0
  1  5  1  0  0  0  0
  5  6  1  0  0  0  0
  5  7  1  0  0  0  0
  5  8  1  0  0  0  0
  8  9  1  0  0  0  0
  8 10  1  0  0  0  0
  8 11  1  0  0  0  0
 11 12  1  0  0  0  0
 11 13  1  0  0  0  0
 11 14  1  0  0  0  0
 14 15  1  0  0  0  0
 14 16  1  0  0  0  0
 14 17  1  0  0  0  0
 17 18  1  0  0  0  0
 17 19  1  0  0  0  0
 17 20  1  0  0  0  0
 20 21  1  0  0  0  0
 20 22  1  0  0  0  0
 20 23  1  0  0  0  0
M  END
> <VM2 Rank>
24

> <Conf_Id>
189

> <Probability>
1.76

> <Sum Probability>
85.46

> <Delta G>
1.189

> <G>
39.105

> <E>
11.400

> <-TS>
27.705

> <U+W>
-7.379

> <U>
48.047

> <W>
-55.426

> <W(PB)>
-57.543

> <W(SA)>
2.116

> <Valence>
2.583

> <Coulomb>
44.791

> <VdW>
0.674

> <VdW6>
-5.789

> <VdW12>
6.462

> <Bond>
0.177

> <Angle>
0.787

> <Pdih>
1.619

> <Idih>
0.000

> <Tether>
0.000

$$$$
VeraChem MOL file


 23 22  0  0  0  0  0  0  0  0999 V2000     
   20.0523   18.2283   25.8963 N   0  3  0  0  0  0  0  0  0  0  0  0
   19.1174   17.8498   26.0791 H   0  0  0  0  0  0  0  0  0  0  0  0
   20.4194   18.5619   26.7941 H   0  0  0  0  0  0  0  0  0  0  0  0
   20.6441   17.4434   25.6057 H   0  0  0  0  0  0  0  0  0  0  0  0
   20.0228   19.3299   24.8563 C   0  0  0  0  0  0  0  0  0  0  0  0
   21.0423   19.7055   24.7333 H   0  0  0  0  0  0  0  0  0  0  0  0
   19.4016   20.1423   25.2430 H   0  0  0  0  0  0  0  0  0  0  0  0
   19.4758   18.8619   23.4962 C   0  0  0  0  0  0  0  0  0  0  0  0
   20.0960   18.0355   23.1267 H   0  0  0  0  0  0  0  0  0  0  0  0
   18.4581   18.4709   23.6267 H   0  0  0  0  0  0  0  0  0  0  0  0
   19.4621   20.0164   22.4670 C   0  0  0  0  0  0  0  0  0  0  0  0
   20.4849   20.3820   22.3052 H   0  0  0  0  0  0  0  0  0  0  0  0
   18.9026   20.8631   22.8886 H   0  0  0  0  0  0  0  0  0  0  0  0
   18.8162   19.6316   21.1107 C   0  0  0  0  0  0  0  0  0  0  0  0
   17.7607   19.3759   21.2775 H   0  0  0  0  0  0  0  0  0  0  0  0
   18.8112   20.5164   20.4594 H   0  0  0  0  0  0  0  0  0  0  0  0
   19.5004   18.4610   20.3593 C   0  0  0  0  0  0  0  0  0  0  0  0
   18.9560   18.2821   19.4216 H   0  0  0  0  0  0  0  0  0  0  0  0
   19.4106   17.5329   20.9394 H   0  0  0  0  0  0  0  0  0  0  0  0
   20.9863   18.7278   20.0282 C   0  0  0  0  0  0  0  0  0  0  0  0
   21.3965   17.9132   19.4175 H   0  0  0  0  0  0  0  0  0  0  0  0
   21.5951   18.7966   20.9384 H   0  0  0  0  0  0  0  0  0  0  0  0
   21.1033   19.6622   19.4642 H   0  0  0  0  0  0  0  0  0  0  0  0
  1  2  1  0  0  0  0
  1  3  1  0  0  0  0
  1  4  1  0  0  0  0
  1  5  1  0  0  0  0
  5  6  1  0  0  0  0
  5  7  1  0  0  0  0
  5  8  1  0  0  0  0
  8  9  1  0  0  0  0
  8 10  1  0  0  0  0
  8 11  1  0  0  0  0
 11 12  1  0  0  0  0
 11 13  1  0  0  0  0
 11 14  1  0  0  0  0
 14 15  1  0  0  0  0
 14 16  1  0  0  0  0
 14 17  1  0  0  0  0
 17 18  1  0  0  0  0
 17 19  1  0  0  0  0
 17 20  1  0  0  0  0
 20 21  1  0  0  0  0
 20 22  1  0  0  0  0
 20 23  1  0  0  0  0
M  END
> <VM2 Rank>
25

> <Conf_Id>
176

> <Probability>
1.61

> <Sum Probability>
87.07

> <Delta G>
1.242

> <G>
39.158

> <E>
11.212

> <-TS>
27.945

> <U+W>
-7.567

> <U>
48.054

> <W>
-55.620

> <W(PB)>
-57.724

> <W(SA)>
2.103

> <Valence>
2.692

> <Coulomb>
44.814

> <VdW>
0.547

> <VdW6>
-6.176

> <VdW12>
6.723

> <Bond>
0.192

> <Angle>
1.036

> <Pdih>
1.465

> <Idih>
0.000

> <Tether>
0.000

$$$$
VeraChem MOL file


 23 22  0  0  0  0  0  0  0  0999 V2000     
   19.8710   18.1529   25.8880 N   0  3  0  0  0  0  0  0  0  0  0  0
   19.3075   18.0991   26.7434 H   0  0  0  0  0  0  0  0  0  0  0  0
   20.7809   18.5423   26.1550 H   0  0  0  0  0  0  0  0  0  0  0  0
   20.0343   17.1896   25.5780 H   0  0  0  0  0  0  0  0  0  0  0  0
   19.1921   18.9841   24.8184 C   0  0  0  0  0  0  0  0  0  0  0  0
   19.0225   19.9845   25.2257 H   0  0  0  0  0  0  0  0  0  0  0  0
   18.2204   18.5308   24.6047 H   0  0  0  0  0  0  0  0  0  0  0  0
   20.0129   19.0855   23.5206 C   0  0  0  0  0  0  0  0  0  0  0  0
   20.9938   19.5264   23.7423 H   0  0  0  0  0  0  0  0  0  0  0  0
   20.1917   18.0753   23.1311 H   0  0  0  0  0  0  0  0  0  0  0  0
   19.2846   19.9426   22.4589 C   0  0  0  0  0  0  0  0  0  0  0  0
   19.0447   20.9223   22.8951 H   0  0  0  0  0  0  0  0  0  0  0  0
   18.3206   19.4811   22.2065 H   0  0  0  0  0  0  0  0  0  0  0  0
   20.1156   20.1725   21.1699 C   0  0  0  0  0  0  0  0  0  0  0  0
   19.5429   20.8210   20.4927 H   0  0  0  0  0  0  0  0  0  0  0  0
   21.0243   20.7344   21.4262 H   0  0  0  0  0  0  0  0  0  0  0  0
   20.5228   18.8866   20.4059 C   0  0  0  0  0  0  0  0  0  0  0  0
   21.1983   18.2770   21.0209 H   0  0  0  0  0  0  0  0  0  0  0  0
   21.1043   19.1763   19.5195 H   0  0  0  0  0  0  0  0  0  0  0  0
   19.3170   18.0329   19.9522 C   0  0  0  0  0  0  0  0  0  0  0  0
   18.7706   17.6209   20.8096 H   0  0  0  0  0  0  0  0  0  0  0  0
   19.6536   17.1877   19.3380 H   0  0  0  0  0  0  0  0  0  0  0  0
   18.6169   18.6272   19.3509 H   0  0  0  0  0  0  0  0  0  0  0  0
  1  2  1  0  0  0  0
  1  3  1  0  0  0  0
  1  4  1  0  0  0  0
  1  5  1  0  0  0  0
  5  6  1  0  0  0  0
  5  7  1  0  0  0  0
  5  8  1  0  0  0  0
  8  9  1  0  0  0  0
  8 10  1  0  0  0  0
  8 11  1  0  0  0  0
 11 12  1  0  0  0  0
 11 13  1  0  0  0  0
 11 14  1  0  0  0  0
 14 15  1  0  0  0  0
 14 16  1  0  0  0  0
 14 17  1  0  0  0  0
 17 18  1  0  0  0  0
 17 19  1  0  0  0  0
 17 20  1  0  0  0  0
 20 21  1  0  0  0  0
 20 22  1  0  0  0  0
 20 23  1  0  0  0  0
M  END
> <VM2 Rank>
26

> <Conf_Id>
630

> <Probability>
1.41

> <Sum Probability>
88.48

> <Delta G>
1.323

> <G>
39.239

> <E>
11.293

> <-TS>
27.945

> <U+W>
-7.486

> <U>
48.054

> <W>
-55.539

> <W(PB)>
-57.644

> <W(SA)>
2.105

> <Valence>
2.692

> <Coulomb>
44.814

> <VdW>
0.547

> <VdW6>
-6.176

> <VdW12>
6.723

> <Bond>
0.192

> <Angle>
1.036

> <Pdih>
1.465

> <Idih>
0.000

> <Tether>
0.000

$$$$
VeraChem MOL file


 23 22  0  0  0  0  0  0  0  0999 V2000     
   19.8773   18.6892   25.7958 N   0  3  0  0  0  0  0  0  0  0  0  0
   20.2738   18.9825   26.6951 H   0  0  0  0  0  0  0  0  0  0  0  0
   20.4456   17.9061   25.4595 H   0  0  0  0  0  0  0  0  0  0  0  0
   18.9396   18.3226   25.9882 H   0  0  0  0  0  0  0  0  0  0  0  0
   19.8425   19.8299   24.7973 C   0  0  0  0  0  0  0  0  0  0  0  0
   20.8656   20.1887   24.6552 H   0  0  0  0  0  0  0  0  0  0  0  0
   19.2565   20.6395   25.2409 H   0  0  0  0  0  0  0  0  0  0  0  0
   19.2331   19.4470   23.4346 C   0  0  0  0  0  0  0  0  0  0  0  0
   18.2126   19.0696   23.5821 H   0  0  0  0  0  0  0  0  0  0  0  0
   19.1470   20.3611   22.8340 H   0  0  0  0  0  0  0  0  0  0  0  0
   20.0828   18.3991   22.6729 C   0  0  0  0  0  0  0  0  0  0  0  0
   20.2011   17.5030   23.2961 H   0  0  0  0  0  0  0  0  0  0  0  0
   21.0962   18.7900   22.5112 H   0  0  0  0  0  0  0  0  0  0  0  0
   19.4621   17.9624   21.3204 C   0  0  0  0  0  0  0  0  0  0  0  0
   20.1018   17.1890   20.8735 H   0  0  0  0  0  0  0  0  0  0  0  0
   18.4947   17.4778   21.5114 H   0  0  0  0  0  0  0  0  0  0  0  0
   19.2556   19.0982   20.2856 C   0  0  0  0  0  0  0  0  0  0  0  0
   18.5185   19.8223   20.6575 H   0  0  0  0  0  0  0  0  0  0  0  0
   18.8170   18.6656   19.3755 H   0  0  0  0  0  0  0  0  0  0  0  0
   20.5626   19.8311   19.9074 C   0  0  0  0  0  0  0  0  0  0  0  0
   20.3778   20.5580   19.1059 H   0  0  0  0  0  0  0  0  0  0  0  0
   21.3226   19.1238   19.5508 H   0  0  0  0  0  0  0  0  0  0  0  0
   20.9773   20.3804   20.7618 H   0  0  0  0  0  0  0  0  0  0  0  0
  1  2  1  0  0  0  0
  1  3  1  0  0  0  0
  1  4  1  0  0  0  0
  1  5  1  0  0  0  0
  5  6  1  0  0  0  0
  5  7  1  0  0  0  0
  5  8  1  0  0  0  0
  8  9  1  0  0  0  0
  8 10  1  0  0  0  0
  8 11  1  0  0  0  0
 11 12  1  0  0  0  0
 11 13  1  0  0  0  0
 11 14  1  0  0  0  0
 14 15  1  0  0  0  0
 14 16  1  0  0  0  0
 14 17  1  0  0  0  0
 17 18  1  0  0  0  0
 17 19  1  0  0  0  0
 17 20  1  0  0  0  0
 20 21  1  0  0  0  0
 20 22  1  0  0  0  0
 20 23  1  0  0  0  0
M  END
> <VM2 Rank>
27

> <Conf_Id>
293

> <Probability>
0.95

> <Sum Probability>
89.43

> <Delta G>
1.560

> <G>
39.476

> <E>
11.438

> <-TS>
28.039

> <U+W>
-7.341

> <U>
48.503

> <W>
-55.844

> <W(PB)>
-57.925

> <W(SA)>
2.081

> <Valence>
2.824

> <Coulomb>
44.990

> <VdW>
0.689

> <VdW6>
-6.667

> <VdW12>
7.356

> <Bond>
0.219

> <Angle>
1.118

> <Pdih>
1.487

> <Idih>
0.000

> <Tether>
0.000

$$$$
VeraChem MOL file


 23 22  0  0  0  0  0  0  0  0999 V2000     
   20.0739   18.1584   25.2939 N   0  3  0  0  0  0  0  0  0  0  0  0
   20.8892   17.7161   25.7313 H   0  0  0  0  0  0  0  0  0  0  0  0
   19.5898   17.4332   24.7561 H   0  0  0  0  0  0  0  0  0  0  0  0
   19.4457   18.4436   26.0519 H   0  0  0  0  0  0  0  0  0  0  0  0
   20.4702   19.3320   24.4199 C   0  0  0  0  0  0  0  0  0  0  0  0
   21.1628   18.9683   23.6564 H   0  0  0  0  0  0  0  0  0  0  0  0
   21.0041   20.0500   25.0484 H   0  0  0  0  0  0  0  0  0  0  0  0
   19.2732   20.0321   23.7454 C   0  0  0  0  0  0  0  0  0  0  0  0
   18.6023   20.4234   24.5216 H   0  0  0  0  0  0  0  0  0  0  0  0
   19.6392   20.9095   23.1970 H   0  0  0  0  0  0  0  0  0  0  0  0
   18.4656   19.1170   22.7876 C   0  0  0  0  0  0  0  0  0  0  0  0
   17.6632   19.7086   22.3257 H   0  0  0  0  0  0  0  0  0  0  0  0
   17.9596   18.3374   23.3728 H   0  0  0  0  0  0  0  0  0  0  0  0
   19.3022   18.4404   21.6709 C   0  0  0  0  0  0  0  0  0  0  0  0
   20.0506   17.7700   22.1140 H   0  0  0  0  0  0  0  0  0  0  0  0
   18.6348   17.7991   21.0788 H   0  0  0  0  0  0  0  0  0  0  0  0
   19.9997   19.4469   20.7256 C   0  0  0  0  0  0  0  0  0  0  0  0
   20.7252   20.0521   21.2854 H   0  0  0  0  0  0  0  0  0  0  0  0
   19.2568   20.1424   20.3108 H   0  0  0  0  0  0  0  0  0  0  0  0
   20.7311   18.7302   19.5707 C   0  0  0  0  0  0  0  0  0  0  0  0
   21.5021   18.0493   19.9542 H   0  0  0  0  0  0  0  0  0  0  0  0
   21.2220   19.4581   18.9118 H   0  0  0  0  0  0  0  0  0  0  0  0
   20.0299   18.1445   18.9619 H   0  0  0  0  0  0  0  0  0  0  0  0
  1  2  1  0  0  0  0
  1  3  1  0  0  0  0
  1  4  1  0  0  0  0
  1  5  1  0  0  0  0
  5  6  1  0  0  0  0
  5  7  1  0  0  0  0
  5  8  1  0  0  0  0
  8  9  1  0  0  0  0
  8 10  1  0  0  0  0
  8 11  1  0  0  0  0
 11 12  1  0  0  0  0
 11 13  1  0  0  0  0
 11 14  1  0  0  0  0
 14 15  1  0  0  0  0
 14 16  1  0  0  0  0
 14 17  1  0  0  0  0
 17 18  1  0  0  0  0
 17 19  1  0  0  0  0
 17 20  1  0  0  0  0
 20 21  1  0  0  0  0
 20 22  1  0  0  0  0
 20 23  1  0  0  0  0
M  END
> <VM2 Rank>
28

> <Conf_Id>
299

> <Probability>
0.90

> <Sum Probability>
90.33

> <Delta G>
1.591

> <G>
39.507

> <E>
11.447

> <-TS>
28.060

> <U+W>
-7.333

> <U>
48.591

> <W>
-55.923

> <W(PB)>
-58.013

> <W(SA)>
2.090

> <Valence>
2.601

> <Coulomb>
45.520

> <VdW>
0.470

> <VdW6>
-6.867

> <VdW12>
7.336

> <Bond>
0.205

> <Angle>
0.962

> <Pdih>
1.434

> <Idih>
0.000

> <Tether>
0.000

$$$$
VeraChem MOL file


 23 22  0  0  0  0  0  0  0  0999 V2000     
   20.2307   19.8406   25.3502 N   0  3  0  0  0  0  0  0  0  0  0  0
   20.6831   20.3444   24.5814 H   0  0  0  0  0  0  0  0  0  0  0  0
   20.9561   19.2905   25.8211 H   0  0  0  0  0  0  0  0  0  0  0  0
   19.9058   20.5445   26.0216 H   0  0  0  0  0  0  0  0  0  0  0  0
   19.0945   18.9675   24.8550 C   0  0  0  0  0  0  0  0  0  0  0  0
   18.3452   19.6155   24.3934 H   0  0  0  0  0  0  0  0  0  0  0  0
   18.6380   18.4900   25.7262 H   0  0  0  0  0  0  0  0  0  0  0  0
   19.5378   17.8830   23.8517 C   0  0  0  0  0  0  0  0  0  0  0  0
   20.2510   17.2094   24.3450 H   0  0  0  0  0  0  0  0  0  0  0  0
   18.6667   17.2674   23.5907 H   0  0  0  0  0  0  0  0  0  0  0  0
   20.1756   18.4409   22.5541 C   0  0  0  0  0  0  0  0  0  0  0  0
   20.4888   17.5894   21.9363 H   0  0  0  0  0  0  0  0  0  0  0  0
   21.0916   18.9959   22.7962 H   0  0  0  0  0  0  0  0  0  0  0  0
   19.2138   19.3447   21.7413 C   0  0  0  0  0  0  0  0  0  0  0  0
   18.3099   18.7792   21.4761 H   0  0  0  0  0  0  0  0  0  0  0  0
   18.8809   20.1835   22.3665 H   0  0  0  0  0  0  0  0  0  0  0  0
   19.8533   19.9270   20.4574 C   0  0  0  0  0  0  0  0  0  0  0  0
   20.7523   20.5031   20.7178 H   0  0  0  0  0  0  0  0  0  0  0  0
   19.1503   20.6421   20.0077 H   0  0  0  0  0  0  0  0  0  0  0  0
   20.2103   18.8533   19.4043 C   0  0  0  0  0  0  0  0  0  0  0  0
   20.5671   19.3261   18.4801 H   0  0  0  0  0  0  0  0  0  0  0  0
   19.3346   18.2416   19.1514 H   0  0  0  0  0  0  0  0  0  0  0  0
   21.0051   18.1865   19.7603 H   0  0  0  0  0  0  0  0  0  0  0  0
  1  2  1  0  0  0  0
  1  3  1  0  0  0  0
  1  4  1  0  0  0  0
  1  5  1  0  0  0  0
  5  6  1  0  0  0  0
  5  7  1  0  0  0  0
  5  8  1  0  0  0  0
  8  9  1  0  0  0  0
  8 10  1  0  0  0  0
  8 11  1  0  0  0  0
 11 12  1  0  0  0  0
 11 13  1  0  0  0  0
 11 14  1  0  0  0  0
 14 15  1  0  0  0  0
 14 16  1  0  0  0  0
 14 17  1  0  0  0  0
 17 18  1  0  0  0  0
 17 19  1  0  0  0  0
 17 20  1  0  0  0  0
 20 21  1  0  0  0  0
 20 22  1  0  0  0  0
 20 23  1  0  0  0  0
M  END
> <VM2 Rank>
29

> <Conf_Id>
264

> <Probability>
0.89

> <Sum Probability>
91.21

> <Delta G>
1.600

> <G>
39.516

> <E>
11.626

> <-TS>
27.890

> <U+W>
-7.153

> <U>
48.727

> <W>
-55.880

> <W(PB)>
-57.960

> <W(SA)>
2.080

> <Valence>
2.671

> <Coulomb>
45.371

> <VdW>
0.684

> <VdW6>
-6.511

> <VdW12>
7.195

> <Bond>
0.203

> <Angle>
0.915

> <Pdih>
1.554

> <Idih>
0.000

> <Tether>
0.000

$$$$
VeraChem MOL file


 23 22  0  0  0  0  0  0  0  0999 V2000     
   20.3543   17.8789   24.9469 N   0  3  0  0  0  0  0  0  0  0  0  0
   19.5909   17.3574   25.3895 H   0  0  0  0  0  0  0  0  0  0  0  0
   21.1943   17.7178   25.5128 H   0  0  0  0  0  0  0  0  0  0  0  0
   20.5219   17.4526   24.0305 H   0  0  0  0  0  0  0  0  0  0  0  0
   20.0312   19.3552   24.8258 C   0  0  0  0  0  0  0  0  0  0  0  0
   20.8935   19.8551   24.3772 H   0  0  0  0  0  0  0  0  0  0  0  0
   19.8981   19.7509   25.8364 H   0  0  0  0  0  0  0  0  0  0  0  0
   18.7671   19.6466   23.9916 C   0  0  0  0  0  0  0  0  0  0  0  0
   17.9001   19.1793   24.4771 H   0  0  0  0  0  0  0  0  0  0  0  0
   18.5784   20.7283   24.0045 H   0  0  0  0  0  0  0  0  0  0  0  0
   18.8559   19.1607   22.5230 C   0  0  0  0  0  0  0  0  0  0  0  0
   17.9093   19.3979   22.0181 H   0  0  0  0  0  0  0  0  0  0  0  0
   18.9469   18.0673   22.5041 H   0  0  0  0  0  0  0  0  0  0  0  0
   20.0257   19.8081   21.7395 C   0  0  0  0  0  0  0  0  0  0  0  0
   19.9644   20.9004   21.8420 H   0  0  0  0  0  0  0  0  0  0  0  0
   20.9870   19.5094   22.1782 H   0  0  0  0  0  0  0  0  0  0  0  0
   20.0244   19.4550   20.2326 C   0  0  0  0  0  0  0  0  0  0  0  0
   20.8142   20.0342   19.7340 H   0  0  0  0  0  0  0  0  0  0  0  0
   19.0763   19.7728   19.7766 H   0  0  0  0  0  0  0  0  0  0  0  0
   20.2574   17.9525   19.9545 C   0  0  0  0  0  0  0  0  0  0  0  0
   21.1869   17.6035   20.4228 H   0  0  0  0  0  0  0  0  0  0  0  0
   20.3369   17.7698   18.8751 H   0  0  0  0  0  0  0  0  0  0  0  0
   19.4299   17.3393   20.3321 H   0  0  0  0  0  0  0  0  0  0  0  0
  1  2  1  0  0  0  0
  1  3  1  0  0  0  0
  1  4  1  0  0  0  0
  1  5  1  0  0  0  0
  5  6  1  0  0  0  0
  5  7  1  0  0  0  0
  5  8  1  0  0  0  0
  8  9  1  0  0  0  0
  8 10  1  0  0  0  0
  8 11  1  0  0  0  0
 11 12  1  0  0  0  0
 11 13  1  0  0  0  0
 11 14  1  0  0  0  0
 14 15  1  0  0  0  0
 14 16  1  0  0  0  0
 14 17  1  0  0  0  0
 17 18  1  0  0  0  0
 17 19  1  0  0  0  0
 17 20  1  0  0  0  0
 20 21  1  0  0  0  0
 20 22  1  0  0  0  0
 20 23  1  0  0  0  0
M  END
> <VM2 Rank>
30

> <Conf_Id>
521

> <Probability>
0.88

> <Sum Probability>
92.10

> <Delta G>
1.602

> <G>
39.518

> <E>
11.590

> <-TS>
27.929

> <U+W>
-7.190

> <U>
48.775

> <W>
-55.965

> <W(PB)>
-58.038

> <W(SA)>
2.073

> <Valence>
2.602

> <Coulomb>
45.581

> <VdW>
0.592

> <VdW6>
-6.617

> <VdW12>
7.209

> <Bond>
0.196

> <Angle>
0.832

> <Pdih>
1.574

> <Idih>
0.000

> <Tether>
0.000

$$$$
VeraChem MOL file


 23 22  0  0  0  0  0  0  0  0999 V2000     
   18.6465   19.1825   25.2778 N   0  3  0  0  0  0  0  0  0  0  0  0
   18.0320   19.2432   24.4603 H   0  0  0  0  0  0  0  0  0  0  0  0
   18.3247   19.8877   25.9494 H   0  0  0  0  0  0  0  0  0  0  0  0
   18.4892   18.2658   25.7083 H   0  0  0  0  0  0  0  0  0  0  0  0
   20.1008   19.3855   24.9009 C   0  0  0  0  0  0  0  0  0  0  0  0
   20.6916   19.3431   25.8199 H   0  0  0  0  0  0  0  0  0  0  0  0
   20.2049   20.3880   24.4782 H   0  0  0  0  0  0  0  0  0  0  0  0
   20.6343   18.3386   23.9017 C   0  0  0  0  0  0  0  0  0  0  0  0
   21.7021   18.5284   23.7290 H   0  0  0  0  0  0  0  0  0  0  0  0
   20.5715   17.3425   24.3596 H   0  0  0  0  0  0  0  0  0  0  0  0
   19.8923   18.3231   22.5412 C   0  0  0  0  0  0  0  0  0  0  0  0
   18.8374   18.0592   22.6935 H   0  0  0  0  0  0  0  0  0  0  0  0
   20.3226   17.5203   21.9287 H   0  0  0  0  0  0  0  0  0  0  0  0
   19.9916   19.6678   21.7768 C   0  0  0  0  0  0  0  0  0  0  0  0
   19.5836   20.4754   22.3986 H   0  0  0  0  0  0  0  0  0  0  0  0
   21.0472   19.9165   21.6009 H   0  0  0  0  0  0  0  0  0  0  0  0
   19.2300   19.6680   20.4291 C   0  0  0  0  0  0  0  0  0  0  0  0
   19.2527   20.6847   20.0125 H   0  0  0  0  0  0  0  0  0  0  0  0
   18.1707   19.4303   20.6002 H   0  0  0  0  0  0  0  0  0  0  0  0
   19.8205   18.6915   19.3865 C   0  0  0  0  0  0  0  0  0  0  0  0
   20.8881   18.8873   19.2222 H   0  0  0  0  0  0  0  0  0  0  0  0
   19.3071   18.8026   18.4227 H   0  0  0  0  0  0  0  0  0  0  0  0
   19.7065   17.6469   19.7011 H   0  0  0  0  0  0  0  0  0  0  0  0
  1  2  1  0  0  0  0
  1  3  1  0  0  0  0
  1  4  1  0  0  0  0
  1  5  1  0  0  0  0
  5  6  1  0  0  0  0
  5  7  1  0  0  0  0
  5  8  1  0  0  0  0
  8  9  1  0  0  0  0
  8 10  1  0  0  0  0
  8 11  1  0  0  0  0
 11 12  1  0  0  0  0
 11 13  1  0  0  0  0
 11 14  1  0  0  0  0
 14 15  1  0  0  0  0
 14 16  1  0  0  0  0
 14 17  1  0  0  0  0
 17 18  1  0  0  0  0
 17 19  1  0  0  0  0
 17 20  1  0  0  0  0
 20 21  1  0  0  0  0
 20 22  1  0  0  0  0
 20 23  1  0  0  0  0
M  END
> <VM2 Rank>
31

> <Conf_Id>
72

> <Probability>
0.85

> <Sum Probability>
92.95

> <Delta G>
1.624

> <G>
39.540

> <E>
11.649

> <-TS>
27.890

> <U+W>
-7.130

> <U>
48.727

> <W>
-55.857

> <W(PB)>
-57.937

> <W(SA)>
2.080

> <Valence>
2.671

> <Coulomb>
45.371

> <VdW>
0.684

> <VdW6>
-6.511

> <VdW12>
7.196

> <Bond>
0.203

> <Angle>
0.915

> <Pdih>
1.554

> <Idih>
0.000

> <Tether>
0.000

$$$$
VeraChem MOL file


 23 22  0  0  0  0  0  0  0  0999 V2000     
   19.9518   18.1077   25.2884 N   0  3  0  0  0  0  0  0  0  0  0  0
   20.1319   18.7293   26.0833 H   0  0  0  0  0  0  0  0  0  0  0  0
   20.8469   17.9563   24.8136 H   0  0  0  0  0  0  0  0  0  0  0  0
   19.6589   17.2043   25.6754 H   0  0  0  0  0  0  0  0  0  0  0  0
   18.9105   18.6830   24.3488 C   0  0  0  0  0  0  0  0  0  0  0  0
   17.9786   18.7912   24.9104 H   0  0  0  0  0  0  0  0  0  0  0  0
   18.7412   17.9607   23.5460 H   0  0  0  0  0  0  0  0  0  0  0  0
   19.3071   20.0462   23.7469 C   0  0  0  0  0  0  0  0  0  0  0  0
   18.4716   20.4236   23.1437 H   0  0  0  0  0  0  0  0  0  0  0  0
   19.4407   20.7722   24.5597 H   0  0  0  0  0  0  0  0  0  0  0  0
   20.5963   20.0034   22.8847 C   0  0  0  0  0  0  0  0  0  0  0  0
   21.4580   19.7929   23.5323 H   0  0  0  0  0  0  0  0  0  0  0  0
   20.7764   21.0038   22.4676 H   0  0  0  0  0  0  0  0  0  0  0  0
   20.5748   18.9699   21.7288 C   0  0  0  0  0  0  0  0  0  0  0  0
   21.5432   19.0093   21.2112 H   0  0  0  0  0  0  0  0  0  0  0  0
   20.4900   17.9528   22.1340 H   0  0  0  0  0  0  0  0  0  0  0  0
   19.4458   19.2164   20.7004 C   0  0  0  0  0  0  0  0  0  0  0  0
   19.5068   20.2464   20.3223 H   0  0  0  0  0  0  0  0  0  0  0  0
   18.4647   19.1114   21.1824 H   0  0  0  0  0  0  0  0  0  0  0  0
   19.5297   18.2304   19.5159 C   0  0  0  0  0  0  0  0  0  0  0  0
   19.4411   17.1917   19.8601 H   0  0  0  0  0  0  0  0  0  0  0  0
   20.4836   18.3337   18.9825 H   0  0  0  0  0  0  0  0  0  0  0  0
   18.7207   18.4174   18.7978 H   0  0  0  0  0  0  0  0  0  0  0  0
  1  2  1  0  0  0  0
  1  3  1  0  0  0  0
  1  4  1  0  0  0  0
  1  5  1  0  0  0  0
  5  6  1  0  0  0  0
  5  7  1  0  0  0  0
  5  8  1  0  0  0  0
  8  9  1  0  0  0  0
  8 10  1  0  0  0  0
  8 11  1  0  0  0  0
 11 12  1  0  0  0  0
 11 13  1  0  0  0  0
 11 14  1  0  0  0  0
 14 15  1  0  0  0  0
 14 16  1  0  0  0  0
 14 17  1  0  0  0  0
 17 18  1  0  0  0  0
 17 19  1  0  0  0  0
 17 20  1  0  0  0  0
 20 21  1  0  0  0  0
 20 22  1  0  0  0  0
 20 23  1  0  0  0  0
M  END
> <VM2 Rank>
32

> <Conf_Id>
714

> <Probability>
0.83

> <Sum Probability>
93.78

> <Delta G>
1.638

> <G>
39.554

> <E>
11.494

> <-TS>
28.060

> <U+W>
-7.285

> <U>
48.590

> <W>
-55.875

> <W(PB)>
-57.963

> <W(SA)>
2.087

> <Valence>
2.601

> <Coulomb>
45.520

> <VdW>
0.469

> <VdW6>
-6.867

> <VdW12>
7.336

> <Bond>
0.205

> <Angle>
0.962

> <Pdih>
1.434

> <Idih>
0.000

> <Tether>
0.000

$$$$
VeraChem MOL file


 23 22  0  0  0  0  0  0  0  0999 V2000     
   19.6752   18.6051   25.7866 N   0  3  0  0  0  0  0  0  0  0  0  0
   19.1195   18.5023   26.6425 H   0  0  0  0  0  0  0  0  0  0  0  0
   20.5780   19.0043   26.0628 H   0  0  0  0  0  0  0  0  0  0  0  0
   19.8569   17.6611   25.4328 H   0  0  0  0  0  0  0  0  0  0  0  0
   18.9691   19.4665   24.7575 C   0  0  0  0  0  0  0  0  0  0  0  0
   18.7727   20.4382   25.2188 H   0  0  0  0  0  0  0  0  0  0  0  0
   18.0082   18.9996   24.5251 H   0  0  0  0  0  0  0  0  0  0  0  0
   19.7736   19.6719   23.4593 C   0  0  0  0  0  0  0  0  0  0  0  0
   19.2333   20.3970   22.8380 H   0  0  0  0  0  0  0  0  0  0  0  0
   20.7457   20.1236   23.6975 H   0  0  0  0  0  0  0  0  0  0  0  0
   19.9784   18.3556   22.6681 C   0  0  0  0  0  0  0  0  0  0  0  0
   19.0029   17.9190   22.4158 H   0  0  0  0  0  0  0  0  0  0  0  0
   20.4816   17.6197   23.3089 H   0  0  0  0  0  0  0  0  0  0  0  0
   20.8282   18.5309   21.3827 C   0  0  0  0  0  0  0  0  0  0  0  0
   21.8355   18.8678   21.6637 H   0  0  0  0  0  0  0  0  0  0  0  0
   20.9616   17.5467   20.9127 H   0  0  0  0  0  0  0  0  0  0  0  0
   20.2492   19.5116   20.3309 C   0  0  0  0  0  0  0  0  0  0  0  0
   20.9339   19.5465   19.4721 H   0  0  0  0  0  0  0  0  0  0  0  0
   20.2249   20.5323   20.7353 H   0  0  0  0  0  0  0  0  0  0  0  0
   18.8423   19.1153   19.8289 C   0  0  0  0  0  0  0  0  0  0  0  0
   18.5195   19.7848   19.0211 H   0  0  0  0  0  0  0  0  0  0  0  0
   18.0960   19.1814   20.6303 H   0  0  0  0  0  0  0  0  0  0  0  0
   18.8375   18.0898   19.4373 H   0  0  0  0  0  0  0  0  0  0  0  0
  1  2  1  0  0  0  0
  1  3  1  0  0  0  0
  1  4  1  0  0  0  0
  1  5  1  0  0  0  0
  5  6  1  0  0  0  0
  5  7  1  0  0  0  0
  5  8  1  0  0  0  0
  8  9  1  0  0  0  0
  8 10  1  0  0  0  0
  8 11  1  0  0  0  0
 11 12  1  0  0  0  0
 11 13  1  0  0  0  0
 11 14  1  0  0  0  0
 14 15  1  0  0  0  0
 14 16  1  0  0  0  0
 14 17  1  0  0  0  0
 17 18  1  0  0  0  0
 17 19  1  0  0  0  0
 17 20  1  0  0  0  0
 20 21  1  0  0  0  0
 20 22  1  0  0  0  0
 20 23  1  0  0  0  0
M  END
> <VM2 Rank>
33

> <Conf_Id>
292

> <Probability>
0.80

> <Sum Probability>
94.57

> <Delta G>
1.663

> <G>
39.579

> <E>
11.541

> <-TS>
28.038

> <U+W>
-7.238

> <U>
48.503

> <W>
-55.741

> <W(PB)>
-57.819

> <W(SA)>
2.078

> <Valence>
2.824

> <Coulomb>
44.990

> <VdW>
0.689

> <VdW6>
-6.667

> <VdW12>
7.356

> <Bond>
0.219

> <Angle>
1.118

> <Pdih>
1.487

> <Idih>
0.000

> <Tether>
0.000

$$$$
VeraChem MOL file


 23 22  0  0  0  0  0  0  0  0999 V2000     
   19.9805   17.7232   24.9298 N   0  3  0  0  0  0  0  0  0  0  0  0
   20.2360   17.3336   24.0174 H   0  0  0  0  0  0  0  0  0  0  0  0
   19.4614   16.9962   25.4336 H   0  0  0  0  0  0  0  0  0  0  0  0
   20.8510   17.8820   25.4470 H   0  0  0  0  0  0  0  0  0  0  0  0
   19.1707   18.9969   24.7866 C   0  0  0  0  0  0  0  0  0  0  0  0
   18.9053   19.3375   25.7911 H   0  0  0  0  0  0  0  0  0  0  0  0
   18.2464   18.7530   24.2565 H   0  0  0  0  0  0  0  0  0  0  0  0
   19.9157   20.1248   24.0440 C   0  0  0  0  0  0  0  0  0  0  0  0
   19.2808   21.0207   24.0366 H   0  0  0  0  0  0  0  0  0  0  0  0
   20.8173   20.3939   24.6101 H   0  0  0  0  0  0  0  0  0  0  0  0
   20.3116   19.7668   22.5894 C   0  0  0  0  0  0  0  0  0  0  0  0
   21.0237   18.9320   22.5988 H   0  0  0  0  0  0  0  0  0  0  0  0
   20.8468   20.6209   22.1521 H   0  0  0  0  0  0  0  0  0  0  0  0
   19.0931   19.4199   21.6970 C   0  0  0  0  0  0  0  0  0  0  0  0
   18.5962   18.5142   22.0692 H   0  0  0  0  0  0  0  0  0  0  0  0
   18.3544   20.2301   21.7686 H   0  0  0  0  0  0  0  0  0  0  0  0
   19.4611   19.2205   20.2069 C   0  0  0  0  0  0  0  0  0  0  0  0
   19.9366   20.1308   19.8159 H   0  0  0  0  0  0  0  0  0  0  0  0
   18.5354   19.0856   19.6300 H   0  0  0  0  0  0  0  0  0  0  0  0
   20.3833   18.0049   19.9603 C   0  0  0  0  0  0  0  0  0  0  0  0
   19.9420   17.0853   20.3660 H   0  0  0  0  0  0  0  0  0  0  0  0
   21.3690   18.1464   20.4206 H   0  0  0  0  0  0  0  0  0  0  0  0
   20.5408   17.8546   18.8844 H   0  0  0  0  0  0  0  0  0  0  0  0
  1  2  1  0  0  0  0
  1  3  1  0  0  0  0
  1  4  1  0  0  0  0
  1  5  1  0  0  0  0
  5  6  1  0  0  0  0
  5  7  1  0  0  0  0
  5  8  1  0  0  0  0
  8  9  1  0  0  0  0
  8 10  1  0  0  0  0
  8 11  1  0  0  0  0
 11 12  1  0  0  0  0
 11 13  1  0  0  0  0
 11 14  1  0  0  0  0
 14 15  1  0  0  0  0
 14 16  1  0  0  0  0
 14 17  1  0  0  0  0
 17 18  1  0  0  0  0
 17 19  1  0  0  0  0
 17 20  1  0  0  0  0
 20 21  1  0  0  0  0
 20 22  1  0  0  0  0
 20 23  1  0  0  0  0
M  END
> <VM2 Rank>
34

> <Conf_Id>
68

> <Probability>
0.77

> <Sum Probability>
95.35

> <Delta G>
1.682

> <G>
39.598

> <E>
11.669

> <-TS>
27.929

> <U+W>
-7.110

> <U>
48.775

> <W>
-55.886

> <W(PB)>
-57.959

> <W(SA)>
2.073

> <Valence>
2.602

> <Coulomb>
45.582

> <VdW>
0.592

> <VdW6>
-6.616

> <VdW12>
7.209

> <Bond>
0.196

> <Angle>
0.832

> <Pdih>
1.574

> <Idih>
0.000

> <Tether>
0.000

$$$$
VeraChem MOL file


 23 22  0  0  0  0  0  0  0  0999 V2000     
   20.2116   17.9531   25.2450 N   0  3  0  0  0  0  0  0  0  0  0  0
   19.8432   17.0724   24.8720 H   0  0  0  0  0  0  0  0  0  0  0  0
   20.3620   17.8126   26.2498 H   0  0  0  0  0  0  0  0  0  0  0  0
   21.1331   18.1000   24.8221 H   0  0  0  0  0  0  0  0  0  0  0  0
   19.2765   19.1154   24.9736 C   0  0  0  0  0  0  0  0  0  0  0  0
   19.7139   20.0137   25.4175 H   0  0  0  0  0  0  0  0  0  0  0  0
   18.3323   18.9080   25.4846 H   0  0  0  0  0  0  0  0  0  0  0  0
   19.0050   19.3563   23.4761 C   0  0  0  0  0  0  0  0  0  0  0  0
   18.5667   18.4496   23.0402 H   0  0  0  0  0  0  0  0  0  0  0  0
   18.2502   20.1482   23.3821 H   0  0  0  0  0  0  0  0  0  0  0  0
   20.2800   19.7680   22.6986 C   0  0  0  0  0  0  0  0  0  0  0  0
   21.0152   18.9535   22.7193 H   0  0  0  0  0  0  0  0  0  0  0  0
   20.7528   20.6162   23.2128 H   0  0  0  0  0  0  0  0  0  0  0  0
   20.0012   20.1811   21.2303 C   0  0  0  0  0  0  0  0  0  0  0  0
   19.3562   21.0706   21.2256 H   0  0  0  0  0  0  0  0  0  0  0  0
   20.9468   20.4938   20.7664 H   0  0  0  0  0  0  0  0  0  0  0  0
   19.3483   19.0864   20.3482 C   0  0  0  0  0  0  0  0  0  0  0  0
   19.1980   19.4946   19.3389 H   0  0  0  0  0  0  0  0  0  0  0  0
   18.3460   18.8426   20.7251 H   0  0  0  0  0  0  0  0  0  0  0  0
   20.1935   17.7968   20.2421 C   0  0  0  0  0  0  0  0  0  0  0  0
   19.7352   17.0939   19.5345 H   0  0  0  0  0  0  0  0  0  0  0  0
   20.2718   17.2865   21.2101 H   0  0  0  0  0  0  0  0  0  0  0  0
   21.2080   18.0181   19.8862 H   0  0  0  0  0  0  0  0  0  0  0  0
  1  2  1  0  0  0  0
  1  3  1  0  0  0  0
  1  4  1  0  0  0  0
  1  5  1  0  0  0  0
  5  6  1  0  0  0  0
  5  7  1  0  0  0  0
  5  8  1  0  0  0  0
  8  9  1  0  0  0  0
  8 10  1  0  0  0  0
  8 11  1  0  0  0  0
 11 12  1  0  0  0  0
 11 13  1  0  0  0  0
 11 14  1  0  0  0  0
 14 15  1  0  0  0  0
 14 16  1  0  0  0  0
 14 17  1  0  0  0  0
 17 18  1  0  0  0  0
 17 19  1  0  0  0  0
 17 20  1  0  0  0  0
 20 21  1  0  0  0  0
 20 22  1  0  0  0  0
 20 23  1  0  0  0  0
M  END
> <VM2 Rank>
35

> <Conf_Id>
104

> <Probability>
0.75

> <Sum Probability>
96.09

> <Delta G>
1.702

> <G>
39.618

> <E>
11.563

> <-TS>
28.055

> <U+W>
-7.216

> <U>
48.781

> <W>
-55.997

> <W(PB)>
-58.047

> <W(SA)>
2.050

> <Valence>
2.785

> <Coulomb>
45.396

> <VdW>
0.600

> <VdW6>
-6.752

> <VdW12>
7.352

> <Bond>
0.213

> <Angle>
1.043

> <Pdih>
1.528

> <Idih>
0.000

> <Tether>
0.000

$$$$
VeraChem MOL file


 23 22  0  0  0  0  0  0  0  0999 V2000     
   19.2153   18.1525   25.5915 N   0  3  0  0  0  0  0  0  0  0  0  0
   19.1205   17.1948   25.2386 H   0  0  0  0  0  0  0  0  0  0  0  0
   18.4003   18.3328   26.1875 H   0  0  0  0  0  0  0  0  0  0  0  0
   20.0392   18.1692   26.2011 H   0  0  0  0  0  0  0  0  0  0  0  0
   19.3243   19.1617   24.4667 C   0  0  0  0  0  0  0  0  0  0  0  0
   19.3930   20.1580   24.9118 H   0  0  0  0  0  0  0  0  0  0  0  0
   18.4042   19.1101   23.8787 H   0  0  0  0  0  0  0  0  0  0  0  0
   20.5393   18.9182   23.5522 C   0  0  0  0  0  0  0  0  0  0  0  0
   21.4545   18.9350   24.1587 H   0  0  0  0  0  0  0  0  0  0  0  0
   20.4781   17.9135   23.1149 H   0  0  0  0  0  0  0  0  0  0  0  0
   20.6641   19.9779   22.4294 C   0  0  0  0  0  0  0  0  0  0  0  0
   21.5581   19.7617   21.8295 H   0  0  0  0  0  0  0  0  0  0  0  0
   20.8457   20.9600   22.8873 H   0  0  0  0  0  0  0  0  0  0  0  0
   19.4275   20.0878   21.4969 C   0  0  0  0  0  0  0  0  0  0  0  0
   18.5703   20.4650   22.0706 H   0  0  0  0  0  0  0  0  0  0  0  0
   19.6307   20.8520   20.7341 H   0  0  0  0  0  0  0  0  0  0  0  0
   19.0167   18.7718   20.7887 C   0  0  0  0  0  0  0  0  0  0  0  0
   18.1293   18.9689   20.1711 H   0  0  0  0  0  0  0  0  0  0  0  0
   18.7067   18.0225   21.5294 H   0  0  0  0  0  0  0  0  0  0  0  0
   20.1288   18.1871   19.8888 C   0  0  0  0  0  0  0  0  0  0  0  0
   20.4640   18.9237   19.1472 H   0  0  0  0  0  0  0  0  0  0  0  0
   19.7611   17.3070   19.3455 H   0  0  0  0  0  0  0  0  0  0  0  0
   20.9990   17.8720   20.4779 H   0  0  0  0  0  0  0  0  0  0  0  0
  1  2  1  0  0  0  0
  1  3  1  0  0  0  0
  1  4  1  0  0  0  0
  1  5  1  0  0  0  0
  5  6  1  0  0  0  0
  5  7  1  0  0  0  0
  5  8  1  0  0  0  0
  8  9  1  0  0  0  0
  8 10  1  0  0  0  0
  8 11  1  0  0  0  0
 11 12  1  0  0  0  0
 11 13  1  0  0  0  0
 11 14  1  0  0  0  0
 14 15  1  0  0  0  0
 14 16  1  0  0  0  0
 14 17  1  0  0  0  0
 17 18  1  0  0  0  0
 17 19  1  0  0  0  0
 17 20  1  0  0  0  0
 20 21  1  0  0  0  0
 20 22  1  0  0  0  0
 20 23  1  0  0  0  0
M  END
> <VM2 Rank>
36

> <Conf_Id>
314

> <Probability>
0.70

> <Sum Probability>
96.79

> <Delta G>
1.740

> <G>
39.656

> <E>
11.473

> <-TS>
28.184

> <U+W>
-7.306

> <U>
48.641

> <W>
-55.947

> <W(PB)>
-58.031

> <W(SA)>
2.084

> <Valence>
2.922

> <Coulomb>
45.269

> <VdW>
0.450

> <VdW6>
-7.045

> <VdW12>
7.494

> <Bond>
0.220

> <Angle>
1.205

> <Pdih>
1.497

> <Idih>
0.000

> <Tether>
0.000

$$$$
VeraChem MOL file


 23 22  0  0  0  0  0  0  0  0999 V2000     
   20.0048   17.8670   25.2356 N   0  3  0  0  0  0  0  0  0  0  0  0
   19.9209   17.6289   26.2297 H   0  0  0  0  0  0  0  0  0  0  0  0
   20.9160   17.5190   24.9209 H   0  0  0  0  0  0  0  0  0  0  0  0
   19.2870   17.3316   24.7380 H   0  0  0  0  0  0  0  0  0  0  0  0
   19.8586   19.3577   25.0002 C   0  0  0  0  0  0  0  0  0  0  0  0
   20.6283   19.8638   25.5893 H   0  0  0  0  0  0  0  0  0  0  0  0
   18.8810   19.6670   25.3796 H   0  0  0  0  0  0  0  0  0  0  0  0
   19.9945   19.7683   23.5212 C   0  0  0  0  0  0  0  0  0  0  0  0
   19.9704   20.8644   23.4605 H   0  0  0  0  0  0  0  0  0  0  0  0
   20.9782   19.4535   23.1501 H   0  0  0  0  0  0  0  0  0  0  0  0
   18.8688   19.1804   22.6343 C   0  0  0  0  0  0  0  0  0  0  0  0
   17.8963   19.4270   23.0826 H   0  0  0  0  0  0  0  0  0  0  0  0
   18.9284   18.0847   22.6242 H   0  0  0  0  0  0  0  0  0  0  0  0
   18.8856   19.7167   21.1795 C   0  0  0  0  0  0  0  0  0  0  0  0
   18.0366   19.2822   20.6338 H   0  0  0  0  0  0  0  0  0  0  0  0
   18.7083   20.8009   21.1961 H   0  0  0  0  0  0  0  0  0  0  0  0
   20.1875   19.4358   20.3864 C   0  0  0  0  0  0  0  0  0  0  0  0
   21.0341   19.9617   20.8477 H   0  0  0  0  0  0  0  0  0  0  0  0
   20.0821   19.8627   19.3793 H   0  0  0  0  0  0  0  0  0  0  0  0
   20.5162   17.9312   20.2568 C   0  0  0  0  0  0  0  0  0  0  0  0
   20.7477   17.4846   21.2317 H   0  0  0  0  0  0  0  0  0  0  0  0
   21.3905   17.7830   19.6099 H   0  0  0  0  0  0  0  0  0  0  0  0
   19.6752   17.3801   19.8163 H   0  0  0  0  0  0  0  0  0  0  0  0
  1  2  1  0  0  0  0
  1  3  1  0  0  0  0
  1  4  1  0  0  0  0
  1  5  1  0  0  0  0
  5  6  1  0  0  0  0
  5  7  1  0  0  0  0
  5  8  1  0  0  0  0
  8  9  1  0  0  0  0
  8 10  1  0  0  0  0
  8 11  1  0  0  0  0
 11 12  1  0  0  0  0
 11 13  1  0  0  0  0
 11 14  1  0  0  0  0
 14 15  1  0  0  0  0
 14 16  1  0  0  0  0
 14 17  1  0  0  0  0
 17 18  1  0  0  0  0
 17 19  1  0  0  0  0
 17 20  1  0  0  0  0
 20 21  1  0  0  0  0
 20 22  1  0  0  0  0
 20 23  1  0  0  0  0
M  END
> <VM2 Rank>
37

> <Conf_Id>
573

> <Probability>
0.70

> <Sum Probability>
97.49

> <Delta G>
1.740

> <G>
39.656

> <E>
11.602

> <-TS>
28.055

> <U+W>
-7.178

> <U>
48.781

> <W>
-55.958

> <W(PB)>
-58.029

> <W(SA)>
2.071

> <Valence>
2.785

> <Coulomb>
45.396

> <VdW>
0.600

> <VdW6>
-6.752

> <VdW12>
7.352

> <Bond>
0.213

> <Angle>
1.043

> <Pdih>
1.528

> <Idih>
0.000

> <Tether>
0.000

$$$$
VeraChem MOL file


 23 22  0  0  0  0  0  0  0  0999 V2000     
   20.5357   18.7019   25.6516 N   0  3  0  0  0  0  0  0  0  0  0  0
   21.3077   18.1050   25.3381 H   0  0  0  0  0  0  0  0  0  0  0  0
   19.8984   18.1105   26.1946 H   0  0  0  0  0  0  0  0  0  0  0  0
   20.9338   19.3870   26.3028 H   0  0  0  0  0  0  0  0  0  0  0  0
   19.8316   19.3729   24.4898 C   0  0  0  0  0  0  0  0  0  0  0  0
   20.5595   20.0070   23.9768 H   0  0  0  0  0  0  0  0  0  0  0  0
   19.0435   20.0125   24.8959 H   0  0  0  0  0  0  0  0  0  0  0  0
   19.2223   18.3702   23.4922 C   0  0  0  0  0  0  0  0  0  0  0  0
   20.0106   17.7190   23.0937 H   0  0  0  0  0  0  0  0  0  0  0  0
   18.5210   17.7144   24.0250 H   0  0  0  0  0  0  0  0  0  0  0  0
   18.4714   19.0654   22.3295 C   0  0  0  0  0  0  0  0  0  0  0  0
   17.6129   19.6148   22.7399 H   0  0  0  0  0  0  0  0  0  0  0  0
   18.0436   18.2992   21.6693 H   0  0  0  0  0  0  0  0  0  0  0  0
   19.3337   20.0487   21.4926 C   0  0  0  0  0  0  0  0  0  0  0  0
   18.7091   20.4685   20.6920 H   0  0  0  0  0  0  0  0  0  0  0  0
   19.6237   20.9034   22.1186 H   0  0  0  0  0  0  0  0  0  0  0  0
   20.6089   19.4343   20.8613 C   0  0  0  0  0  0  0  0  0  0  0  0
   21.2995   19.1014   21.6476 H   0  0  0  0  0  0  0  0  0  0  0  0
   21.1401   20.2217   20.3085 H   0  0  0  0  0  0  0  0  0  0  0  0
   20.3124   18.2635   19.8971 C   0  0  0  0  0  0  0  0  0  0  0  0
   19.6131   18.5697   19.1083 H   0  0  0  0  0  0  0  0  0  0  0  0
   19.8790   17.4060   20.4268 H   0  0  0  0  0  0  0  0  0  0  0  0
   21.2358   17.9207   19.4128 H   0  0  0  0  0  0  0  0  0  0  0  0
  1  2  1  0  0  0  0
  1  3  1  0  0  0  0
  1  4  1  0  0  0  0
  1  5  1  0  0  0  0
  5  6  1  0  0  0  0
  5  7  1  0  0  0  0
  5  8  1  0  0  0  0
  8  9  1  0  0  0  0
  8 10  1  0  0  0  0
  8 11  1  0  0  0  0
 11 12  1  0  0  0  0
 11 13  1  0  0  0  0
 11 14  1  0  0  0  0
 14 15  1  0  0  0  0
 14 16  1  0  0  0  0
 14 17  1  0  0  0  0
 17 18  1  0  0  0  0
 17 19  1  0  0  0  0
 17 20  1  0  0  0  0
 20 21  1  0  0  0  0
 20 22  1  0  0  0  0
 20 23  1  0  0  0  0
M  END
> <VM2 Rank>
38

> <Conf_Id>
108

> <Probability>
0.64

> <Sum Probability>
98.13

> <Delta G>
1.794

> <G>
39.710

> <E>
11.527

> <-TS>
28.184

> <U+W>
-7.252

> <U>
48.641

> <W>
-55.893

> <W(PB)>
-57.963

> <W(SA)>
2.070

> <Valence>
2.922

> <Coulomb>
45.269

> <VdW>
0.450

> <VdW6>
-7.045

> <VdW12>
7.495

> <Bond>
0.220

> <Angle>
1.205

> <Pdih>
1.497

> <Idih>
0.000

> <Tether>
0.000

$$$$
VeraChem MOL file


 23 22  0  0  0  0  0  0  0  0999 V2000     
   19.0918   18.9200   25.4295 N   0  3  0  0  0  0  0  0  0  0  0  0
   19.7488   18.4229   26.0391 H   0  0  0  0  0  0  0  0  0  0  0  0
   18.5164   18.2122   24.9633 H   0  0  0  0  0  0  0  0  0  0  0  0
   18.4693   19.4615   26.0386 H   0  0  0  0  0  0  0  0  0  0  0  0
   19.8107   19.8037   24.4293 C   0  0  0  0  0  0  0  0  0  0  0  0
   20.3789   20.5495   24.9919 H   0  0  0  0  0  0  0  0  0  0  0  0
   19.0570   20.3276   23.8358 H   0  0  0  0  0  0  0  0  0  0  0  0
   20.7637   19.0313   23.4951 C   0  0  0  0  0  0  0  0  0  0  0  0
   21.2979   19.7504   22.8611 H   0  0  0  0  0  0  0  0  0  0  0  0
   21.5340   18.5337   24.0989 H   0  0  0  0  0  0  0  0  0  0  0  0
   20.0539   17.9784   22.6041 C   0  0  0  0  0  0  0  0  0  0  0  0
   19.6558   17.1761   23.2396 H   0  0  0  0  0  0  0  0  0  0  0  0
   20.8007   17.4949   21.9603 H   0  0  0  0  0  0  0  0  0  0  0  0
   18.9009   18.5381   21.7278 C   0  0  0  0  0  0  0  0  0  0  0  0
   18.4809   17.7152   21.1332 H   0  0  0  0  0  0  0  0  0  0  0  0
   18.0831   18.8814   22.3753 H   0  0  0  0  0  0  0  0  0  0  0  0
   19.3004   19.6913   20.7725 C   0  0  0  0  0  0  0  0  0  0  0  0
   19.6305   20.5655   21.3495 H   0  0  0  0  0  0  0  0  0  0  0  0
   18.4064   20.0148   20.2213 H   0  0  0  0  0  0  0  0  0  0  0  0
   20.3945   19.2941   19.7558 C   0  0  0  0  0  0  0  0  0  0  0  0
   20.5791   20.1138   19.0495 H   0  0  0  0  0  0  0  0  0  0  0  0
   20.0925   18.4125   19.1757 H   0  0  0  0  0  0  0  0  0  0  0  0
   21.3448   19.0681   20.2551 H   0  0  0  0  0  0  0  0  0  0  0  0
  1  2  1  0  0  0  0
  1  3  1  0  0  0  0
  1  4  1  0  0  0  0
  1  5  1  0  0  0  0
  5  6  1  0  0  0  0
  5  7  1  0  0  0  0
  5  8  1  0  0  0  0
  8  9  1  0  0  0  0
  8 10  1  0  0  0  0
  8 11  1  0  0  0  0
 11 12  1  0  0  0  0
 11 13  1  0  0  0  0
 11 14  1  0  0  0  0
 14 15  1  0  0  0  0
 14 16  1  0  0  0  0
 14 17  1  0  0  0  0
 17 18  1  0  0  0  0
 17 19  1  0  0  0  0
 17 20  1  0  0  0  0
 20 21  1  0  0  0  0
 20 22  1  0  0  0  0
 20 23  1  0  0  0  0
M  END
> <VM2 Rank>
39

> <Conf_Id>
542

> <Probability>
0.35

> <Sum Probability>
98.48

> <Delta G>
2.158

> <G>
40.074

> <E>
11.698

> <-TS>
28.376

> <U+W>
-7.081

> <U>
48.991

> <W>
-56.072

> <W(PB)>
-58.113

> <W(SA)>
2.041

> <Valence>
3.025

> <Coulomb>
45.510

> <VdW>
0.456

> <VdW6>
-7.727

> <VdW12>
8.183

> <Bond>
0.246

> <Angle>
1.276

> <Pdih>
1.503

> <Idih>
0.000

> <Tether>
0.000

$$$$
VeraChem MOL file


 23 22  0  0  0  0  0  0  0  0999 V2000     
   20.0914   19.3359   25.4750 N   0  3  0  0  0  0  0  0  0  0  0  0
   20.0980   20.1390   26.1127 H   0  0  0  0  0  0  0  0  0  0  0  0
   21.0326   19.2587   25.0779 H   0  0  0  0  0  0  0  0  0  0  0  0
   19.9347   18.5004   26.0477 H   0  0  0  0  0  0  0  0  0  0  0  0
   19.0387   19.4827   24.3941 C   0  0  0  0  0  0  0  0  0  0  0  0
   19.2431   20.4050   23.8442 H   0  0  0  0  0  0  0  0  0  0  0  0
   18.0683   19.5886   24.8865 H   0  0  0  0  0  0  0  0  0  0  0  0
   18.9889   18.2932   23.4142 C   0  0  0  0  0  0  0  0  0  0  0  0
   18.7535   17.3774   23.9722 H   0  0  0  0  0  0  0  0  0  0  0  0
   18.1540   18.4430   22.7178 H   0  0  0  0  0  0  0  0  0  0  0  0
   20.3016   18.0813   22.6154 C   0  0  0  0  0  0  0  0  0  0  0  0
   20.1695   17.2323   21.9316 H   0  0  0  0  0  0  0  0  0  0  0  0
   21.0997   17.7765   23.3054 H   0  0  0  0  0  0  0  0  0  0  0  0
   20.7830   19.3207   21.8135 C   0  0  0  0  0  0  0  0  0  0  0  0
   21.0640   20.1209   22.5111 H   0  0  0  0  0  0  0  0  0  0  0  0
   21.7064   19.0564   21.2801 H   0  0  0  0  0  0  0  0  0  0  0  0
   19.7602   19.8826   20.7935 C   0  0  0  0  0  0  0  0  0  0  0  0
   20.2017   20.7614   20.3032 H   0  0  0  0  0  0  0  0  0  0  0  0
   18.8650   20.2472   21.3147 H   0  0  0  0  0  0  0  0  0  0  0  0
   19.3520   18.8607   19.7083 C   0  0  0  0  0  0  0  0  0  0  0  0
   20.2331   18.4712   19.1820 H   0  0  0  0  0  0  0  0  0  0  0  0
   18.6969   19.3313   18.9638 H   0  0  0  0  0  0  0  0  0  0  0  0
   18.8062   18.0123   20.1394 H   0  0  0  0  0  0  0  0  0  0  0  0
  1  2  1  0  0  0  0
  1  3  1  0  0  0  0
  1  4  1  0  0  0  0
  1  5  1  0  0  0  0
  5  6  1  0  0  0  0
  5  7  1  0  0  0  0
  5  8  1  0  0  0  0
  8  9  1  0  0  0  0
  8 10  1  0  0  0  0
  8 11  1  0  0  0  0
 11 12  1  0  0  0  0
 11 13  1  0  0  0  0
 11 14  1  0  0  0  0
 14 15  1  0  0  0  0
 14 16  1  0  0  0  0
 14 17  1  0  0  0  0
 17 18  1  0  0  0  0
 17 19  1  0  0  0  0
 17 20  1  0  0  0  0
 20 21  1  0  0  0  0
 20 22  1  0  0  0  0
 20 23  1  0  0  0  0
M  END
> <VM2 Rank>
40

> <Conf_Id>
368

> <Probability>
0.33

> <Sum Probability>
98.81

> <Delta G>
2.187

> <G>
40.103

> <E>
11.727

> <-TS>
28.376

> <U+W>
-7.052

> <U>
48.991

> <W>
-56.043

> <W(PB)>
-58.100

> <W(SA)>
2.057

> <Valence>
3.025

> <Coulomb>
45.510

> <VdW>
0.456

> <VdW6>
-7.727

> <VdW12>
8.183

> <Bond>
0.246

> <Angle>
1.276

> <Pdih>
1.503

> <Idih>
0.000

> <Tether>
0.000

$$$$
VeraChem MOL file


 23 22  0  0  0  0  0  0  0  0999 V2000     
   20.6332   18.0146   24.8317 N   0  3  0  0  0  0  0  0  0  0  0  0
   20.9553   17.8719   23.8707 H   0  0  0  0  0  0  0  0  0  0  0  0
   20.0434   17.2125   25.0757 H   0  0  0  0  0  0  0  0  0  0  0  0
   21.4599   17.9712   25.4374 H   0  0  0  0  0  0  0  0  0  0  0  0
   19.8896   19.3269   24.9896 C   0  0  0  0  0  0  0  0  0  0  0  0
   20.5803   20.1470   24.7758 H   0  0  0  0  0  0  0  0  0  0  0  0
   19.5923   19.3997   26.0393 H   0  0  0  0  0  0  0  0  0  0  0  0
   18.6334   19.4550   24.1027 C   0  0  0  0  0  0  0  0  0  0  0  0
   18.0718   18.5114   24.1074 H   0  0  0  0  0  0  0  0  0  0  0  0
   17.9729   20.2006   24.5649 H   0  0  0  0  0  0  0  0  0  0  0  0
   18.9158   19.9083   22.6473 C   0  0  0  0  0  0  0  0  0  0  0  0
   19.4216   20.8837   22.6599 H   0  0  0  0  0  0  0  0  0  0  0  0
   17.9509   20.0706   22.1472 H   0  0  0  0  0  0  0  0  0  0  0  0
   19.7493   18.9057   21.8144 C   0  0  0  0  0  0  0  0  0  0  0  0
   20.7688   18.8465   22.2149 H   0  0  0  0  0  0  0  0  0  0  0  0
   19.3069   17.9028   21.8910 H   0  0  0  0  0  0  0  0  0  0  0  0
   19.8257   19.3199   20.3280 C   0  0  0  0  0  0  0  0  0  0  0  0
   20.2612   20.3257   20.2450 H   0  0  0  0  0  0  0  0  0  0  0  0
   18.8128   19.3773   19.9053 H   0  0  0  0  0  0  0  0  0  0  0  0
   20.6690   18.3267   19.5003 C   0  0  0  0  0  0  0  0  0  0  0  0
   21.6991   18.2740   19.8761 H   0  0  0  0  0  0  0  0  0  0  0  0
   20.7101   18.6365   18.4480 H   0  0  0  0  0  0  0  0  0  0  0  0
   20.2392   17.3172   19.5374 H   0  0  0  0  0  0  0  0  0  0  0  0
  1  2  1  0  0  0  0
  1  3  1  0  0  0  0
  1  4  1  0  0  0  0
  1  5  1  0  0  0  0
  5  6  1  0  0  0  0
  5  7  1  0  0  0  0
  5  8  1  0  0  0  0
  8  9  1  0  0  0  0
  8 10  1  0  0  0  0
  8 11  1  0  0  0  0
 11 12  1  0  0  0  0
 11 13  1  0  0  0  0
 11 14  1  0  0  0  0
 14 15  1  0  0  0  0
 14 16  1  0  0  0  0
 14 17  1  0  0  0  0
 17 18  1  0  0  0  0
 17 19  1  0  0  0  0
 17 20  1  0  0  0  0
 20 21  1  0  0  0  0
 20 22  1  0  0  0  0
 20 23  1  0  0  0  0
M  END
> <VM2 Rank>
41

> <Conf_Id>
670

> <Probability>
0.12

> <Sum Probability>
98.92

> <Delta G>
2.813

> <G>
40.729

> <E>
13.064

> <-TS>
27.665

> <U+W>
-5.715

> <U>
50.170

> <W>
-55.885

> <W(PB)>
-57.989

> <W(SA)>
2.104

> <Valence>
3.335

> <Coulomb>
46.425

> <VdW>
0.410

> <VdW6>
-6.121

> <VdW12>
6.531

> <Bond>
0.172

> <Angle>
0.958

> <Pdih>
2.205

> <Idih>
0.000

> <Tether>
0.000

$$$$
VeraChem MOL file


 23 22  0  0  0  0  0  0  0  0999 V2000     
   19.6973   17.6250   24.7891 N   0  3  0  0  0  0  0  0  0  0  0  0
   20.6603   17.4693   25.1040 H   0  0  0  0  0  0  0  0  0  0  0  0
   19.6472   17.3273   23.8111 H   0  0  0  0  0  0  0  0  0  0  0  0
   19.1009   16.9893   25.3297 H   0  0  0  0  0  0  0  0  0  0  0  0
   19.2773   19.0720   24.9615 C   0  0  0  0  0  0  0  0  0  0  0  0
   19.3525   19.3001   26.0282 H   0  0  0  0  0  0  0  0  0  0  0  0
   18.2285   19.1680   24.6681 H   0  0  0  0  0  0  0  0  0  0  0  0
   20.1369   20.0807   24.1713 C   0  0  0  0  0  0  0  0  0  0  0  0
   20.0364   21.0594   24.6590 H   0  0  0  0  0  0  0  0  0  0  0  0
   21.1989   19.8129   24.2501 H   0  0  0  0  0  0  0  0  0  0  0  0
   19.7308   20.2475   22.6845 C   0  0  0  0  0  0  0  0  0  0  0  0
   20.3320   21.0613   22.2557 H   0  0  0  0  0  0  0  0  0  0  0  0
   18.6842   20.5771   22.6261 H   0  0  0  0  0  0  0  0  0  0  0  0
   19.9203   18.9769   21.8222 C   0  0  0  0  0  0  0  0  0  0  0  0
   20.9349   18.5802   21.9655 H   0  0  0  0  0  0  0  0  0  0  0  0
   19.2154   18.2005   22.1441 H   0  0  0  0  0  0  0  0  0  0  0  0
   19.6889   19.2630   20.3218 C   0  0  0  0  0  0  0  0  0  0  0  0
   20.3922   20.0342   19.9774 H   0  0  0  0  0  0  0  0  0  0  0  0
   18.6777   19.6669   20.1726 H   0  0  0  0  0  0  0  0  0  0  0  0
   19.8644   17.9919   19.4637 C   0  0  0  0  0  0  0  0  0  0  0  0
   19.6980   18.2152   18.4019 H   0  0  0  0  0  0  0  0  0  0  0  0
   19.1494   17.2133   19.7599 H   0  0  0  0  0  0  0  0  0  0  0  0
   20.8779   17.5827   19.5669 H   0  0  0  0  0  0  0  0  0  0  0  0
  1  2  1  0  0  0  0
  1  3  1  0  0  0  0
  1  4  1  0  0  0  0
  1  5  1  0  0  0  0
  5  6  1  0  0  0  0
  5  7  1  0  0  0  0
  5  8  1  0  0  0  0
  8  9  1  0  0  0  0
  8 10  1  0  0  0  0
  8 11  1  0  0  0  0
 11 12  1  0  0  0  0
 11 13  1  0  0  0  0
 11 14  1  0  0  0  0
 14 15  1  0  0  0  0
 14 16  1  0  0  0  0
 14 17  1  0  0  0  0
 17 18  1  0  0  0  0
 17 19  1  0  0  0  0
 17 20  1  0  0  0  0
 20 21  1  0  0  0  0
 20 22  1  0  0  0  0
 20 23  1  0  0  0  0
M  END
> <VM2 Rank>
42

> <Conf_Id>
160

> <Probability>
0.11

> <Sum Probability>
99.04

> <Delta G>
2.817

> <G>
40.733

> <E>
13.067

> <-TS>
27.666

> <U+W>
-5.712

> <U>
50.170

> <W>
-55.882

> <W(PB)>
-57.977

> <W(SA)>
2.095

> <Valence>
3.335

> <Coulomb>
46.425

> <VdW>
0.410

> <VdW6>
-6.121

> <VdW12>
6.531

> <Bond>
0.172

> <Angle>
0.958

> <Pdih>
2.206

> <Idih>
0.000

> <Tether>
0.000

$$$$
VeraChem MOL file


 23 22  0  0  0  0  0  0  0  0999 V2000     
   20.6931   18.8416   25.6435 N   0  3  0  0  0  0  0  0  0  0  0  0
   20.6246   17.8320   25.8073 H   0  0  0  0  0  0  0  0  0  0  0  0
   20.1202   19.3024   26.3578 H   0  0  0  0  0  0  0  0  0  0  0  0
   21.6668   19.1078   25.8255 H   0  0  0  0  0  0  0  0  0  0  0  0
   20.2591   19.2177   24.2413 C   0  0  0  0  0  0  0  0  0  0  0  0
   20.9290   18.7148   23.5398 H   0  0  0  0  0  0  0  0  0  0  0  0
   20.3828   20.2981   24.1274 H   0  0  0  0  0  0  0  0  0  0  0  0
   18.8024   18.8269   23.9357 C   0  0  0  0  0  0  0  0  0  0  0  0
   18.6948   17.7363   24.0069 H   0  0  0  0  0  0  0  0  0  0  0  0
   18.1510   19.2539   24.7098 H   0  0  0  0  0  0  0  0  0  0  0  0
   18.3014   19.3077   22.5503 C   0  0  0  0  0  0  0  0  0  0  0  0
   18.3337   20.4047   22.4952 H   0  0  0  0  0  0  0  0  0  0  0  0
   17.2391   19.0379   22.4716 H   0  0  0  0  0  0  0  0  0  0  0  0
   19.0462   18.6864   21.3396 C   0  0  0  0  0  0  0  0  0  0  0  0
   19.3444   17.6541   21.5693 H   0  0  0  0  0  0  0  0  0  0  0  0
   18.3400   18.6176   20.5005 H   0  0  0  0  0  0  0  0  0  0  0  0
   20.2703   19.5087   20.8680 C   0  0  0  0  0  0  0  0  0  0  0  0
   21.0117   19.6004   21.6702 H   0  0  0  0  0  0  0  0  0  0  0  0
   19.9532   20.5303   20.6160 H   0  0  0  0  0  0  0  0  0  0  0  0
   20.9435   18.8680   19.6356 C   0  0  0  0  0  0  0  0  0  0  0  0
   21.8054   19.4650   19.3105 H   0  0  0  0  0  0  0  0  0  0  0  0
   20.2433   18.8010   18.7927 H   0  0  0  0  0  0  0  0  0  0  0  0
   21.3019   17.8556   19.8636 H   0  0  0  0  0  0  0  0  0  0  0  0
  1  2  1  0  0  0  0
  1  3  1  0  0  0  0
  1  4  1  0  0  0  0
  1  5  1  0  0  0  0
  5  6  1  0  0  0  0
  5  7  1  0  0  0  0
  5  8  1  0  0  0  0
  8  9  1  0  0  0  0
  8 10  1  0  0  0  0
  8 11  1  0  0  0  0
 11 12  1  0  0  0  0
 11 13  1  0  0  0  0
 11 14  1  0  0  0  0
 14 15  1  0  0  0  0
 14 16  1  0  0  0  0
 14 17  1  0  0  0  0
 17 18  1  0  0  0  0
 17 19  1  0  0  0  0
 17 20  1  0  0  0  0
 20 21  1  0  0  0  0
 20 22  1  0  0  0  0
 20 23  1  0  0  0  0
M  END
> <VM2 Rank>
43

> <Conf_Id>
361

> <Probability>
0.11

> <Sum Probability>
99.15

> <Delta G>
2.836

> <G>
40.752

> <E>
13.107

> <-TS>
27.645

> <U+W>
-5.672

> <U>
50.133

> <W>
-55.805

> <W(PB)>
-57.921

> <W(SA)>
2.116

> <Valence>
4.276

> <Coulomb>
45.339

> <VdW>
0.519

> <VdW6>
-6.084

> <VdW12>
6.602

> <Bond>
0.193

> <Angle>
1.128

> <Pdih>
2.955

> <Idih>
0.000

> <Tether>
0.000

$$$$
VeraChem MOL file


 23 22  0  0  0  0  0  0  0  0999 V2000     
   19.0064   18.1397   25.5665 N   0  3  0  0  0  0  0  0  0  0  0  0
   19.0267   18.8473   26.3079 H   0  0  0  0  0  0  0  0  0  0  0  0
   19.7568   17.4709   25.7676 H   0  0  0  0  0  0  0  0  0  0  0  0
   18.1205   17.6320   25.6637 H   0  0  0  0  0  0  0  0  0  0  0  0
   19.1535   18.7577   24.1909 C   0  0  0  0  0  0  0  0  0  0  0  0
   18.3104   19.4356   24.0329 H   0  0  0  0  0  0  0  0  0  0  0  0
   19.0939   17.9512   23.4561 H   0  0  0  0  0  0  0  0  0  0  0  0
   20.4762   19.5235   24.0120 C   0  0  0  0  0  0  0  0  0  0  0  0
   20.5708   20.2610   24.8201 H   0  0  0  0  0  0  0  0  0  0  0  0
   21.3184   18.8282   24.1267 H   0  0  0  0  0  0  0  0  0  0  0  0
   20.5948   20.2620   22.6548 C   0  0  0  0  0  0  0  0  0  0  0  0
   21.5376   20.8264   22.6675 H   0  0  0  0  0  0  0  0  0  0  0  0
   19.7998   21.0147   22.5619 H   0  0  0  0  0  0  0  0  0  0  0  0
   20.6060   19.3353   21.4108 C   0  0  0  0  0  0  0  0  0  0  0  0
   21.2156   19.8138   20.6317 H   0  0  0  0  0  0  0  0  0  0  0  0
   21.1096   18.3885   21.6500 H   0  0  0  0  0  0  0  0  0  0  0  0
   19.2012   19.0640   20.8192 C   0  0  0  0  0  0  0  0  0  0  0  0
   18.7202   20.0174   20.5594 H   0  0  0  0  0  0  0  0  0  0  0  0
   18.5535   18.5782   21.5581 H   0  0  0  0  0  0  0  0  0  0  0  0
   19.2779   18.1748   19.5599 C   0  0  0  0  0  0  0  0  0  0  0  0
   18.2755   17.9963   19.1497 H   0  0  0  0  0  0  0  0  0  0  0  0
   19.7252   17.1995   19.7923 H   0  0  0  0  0  0  0  0  0  0  0  0
   19.8824   18.6502   18.7764 H   0  0  0  0  0  0  0  0  0  0  0  0
  1  2  1  0  0  0  0
  1  3  1  0  0  0  0
  1  4  1  0  0  0  0
  1  5  1  0  0  0  0
  5  6  1  0  0  0  0
  5  7  1  0  0  0  0
  5  8  1  0  0  0  0
  8  9  1  0  0  0  0
  8 10  1  0  0  0  0
  8 11  1  0  0  0  0
 11 12  1  0  0  0  0
 11 13  1  0  0  0  0
 11 14  1  0  0  0  0
 14 15  1  0  0  0  0
 14 16  1  0  0  0  0
 14 17  1  0  0  0  0
 17 18  1  0  0  0  0
 17 19  1  0  0  0  0
 17 20  1  0  0  0  0
 20 21  1  0  0  0  0
 20 22  1  0  0  0  0
 20 23  1  0  0  0  0
M  END
> <VM2 Rank>
44

> <Conf_Id>
750

> <Probability>
0.10

> <Sum Probability>
99.25

> <Delta G>
2.884

> <G>
40.800

> <E>
13.154

> <-TS>
27.646

> <U+W>
-5.625

> <U>
50.133

> <W>
-55.758

> <W(PB)>
-57.886

> <W(SA)>
2.128

> <Valence>
4.276

> <Coulomb>
45.339

> <VdW>
0.519

> <VdW6>
-6.084

> <VdW12>
6.602

> <Bond>
0.193

> <Angle>
1.128

> <Pdih>
2.955

> <Idih>
0.000

> <Tether>
0.000

$$$$
VeraChem MOL file


 23 22  0  0  0  0  0  0  0  0999 V2000     
   20.0629   17.8547   24.9967 N   0  3  0  0  0  0  0  0  0  0  0  0
   20.1611   17.3940   24.0881 H   0  0  0  0  0  0  0  0  0  0  0  0
   19.1645   17.5585   25.3914 H   0  0  0  0  0  0  0  0  0  0  0  0
   20.7954   17.4775   25.6077 H   0  0  0  0  0  0  0  0  0  0  0  0
   20.1534   19.3637   24.8769 C   0  0  0  0  0  0  0  0  0  0  0  0
   21.1482   19.6242   24.5056 H   0  0  0  0  0  0  0  0  0  0  0  0
   20.0522   19.7698   25.8870 H   0  0  0  0  0  0  0  0  0  0  0  0
   19.0748   19.9952   23.9722 C   0  0  0  0  0  0  0  0  0  0  0  0
   18.0970   19.5396   24.1774 H   0  0  0  0  0  0  0  0  0  0  0  0
   18.9795   21.0521   24.2546 H   0  0  0  0  0  0  0  0  0  0  0  0
   19.3919   19.9356   22.4559 C   0  0  0  0  0  0  0  0  0  0  0  0
   20.3486   20.4416   22.2689 H   0  0  0  0  0  0  0  0  0  0  0  0
   18.6270   20.5172   21.9232 H   0  0  0  0  0  0  0  0  0  0  0  0
   19.4316   18.5032   21.8672 C   0  0  0  0  0  0  0  0  0  0  0  0
   20.3105   17.9667   22.2458 H   0  0  0  0  0  0  0  0  0  0  0  0
   18.5461   17.9476   22.2055 H   0  0  0  0  0  0  0  0  0  0  0  0
   19.4644   18.4798   20.3200 C   0  0  0  0  0  0  0  0  0  0  0  0
   18.5734   18.9848   19.9213 H   0  0  0  0  0  0  0  0  0  0  0  0
   19.4034   17.4363   19.9806 H   0  0  0  0  0  0  0  0  0  0  0  0
   20.7368   19.1249   19.7250 C   0  0  0  0  0  0  0  0  0  0  0  0
   21.6433   18.6519   20.1245 H   0  0  0  0  0  0  0  0  0  0  0  0
   20.7840   20.1988   19.9444 H   0  0  0  0  0  0  0  0  0  0  0  0
   20.7515   19.0100   18.6335 H   0  0  0  0  0  0  0  0  0  0  0  0
  1  2  1  0  0  0  0
  1  3  1  0  0  0  0
  1  4  1  0  0  0  0
  1  5  1  0  0  0  0
  5  6  1  0  0  0  0
  5  7  1  0  0  0  0
  5  8  1  0  0  0  0
  8  9  1  0  0  0  0
  8 10  1  0  0  0  0
  8 11  1  0  0  0  0
 11 12  1  0  0  0  0
 11 13  1  0  0  0  0
 11 14  1  0  0  0  0
 14 15  1  0  0  0  0
 14 16  1  0  0  0  0
 14 17  1  0  0  0  0
 17 18  1  0  0  0  0
 17 19  1  0  0  0  0
 17 20  1  0  0  0  0
 20 21  1  0  0  0  0
 20 22  1  0  0  0  0
 20 23  1  0  0  0  0
M  END
> <VM2 Rank>
45

> <Conf_Id>
140

> <Probability>
0.05

> <Sum Probability>
99.31

> <Delta G>
3.293

> <G>
41.209

> <E>
13.408

> <-TS>
27.801

> <U+W>
-5.371

> <U>
50.658

> <W>
-56.029

> <W(PB)>
-58.111

> <W(SA)>
2.082

> <Valence>
3.782

> <Coulomb>
46.354

> <VdW>
0.522

> <VdW6>
-6.754

> <VdW12>
7.276

> <Bond>
0.207

> <Angle>
1.137

> <Pdih>
2.438

> <Idih>
0.000

> <Tether>
0.000

$$$$
VeraChem MOL file


 23 22  0  0  0  0  0  0  0  0999 V2000     
   20.3686   18.3573   25.8665 N   0  3  0  0  0  0  0  0  0  0  0  0
   19.6607   17.6419   26.0614 H   0  0  0  0  0  0  0  0  0  0  0  0
   20.5986   18.8005   26.7625 H   0  0  0  0  0  0  0  0  0  0  0  0
   21.2125   17.8687   25.5507 H   0  0  0  0  0  0  0  0  0  0  0  0
   19.8850   19.3682   24.8467 C   0  0  0  0  0  0  0  0  0  0  0  0
   20.6733   20.1134   24.7100 H   0  0  0  0  0  0  0  0  0  0  0  0
   19.0057   19.8700   25.2597 H   0  0  0  0  0  0  0  0  0  0  0  0
   19.5303   18.7351   23.4896 C   0  0  0  0  0  0  0  0  0  0  0  0
   20.4094   18.2136   23.0948 H   0  0  0  0  0  0  0  0  0  0  0  0
   18.7504   17.9762   23.6366 H   0  0  0  0  0  0  0  0  0  0  0  0
   19.0313   19.8008   22.4842 C   0  0  0  0  0  0  0  0  0  0  0  0
   19.7780   20.5987   22.3695 H   0  0  0  0  0  0  0  0  0  0  0  0
   18.1387   20.2799   22.9103 H   0  0  0  0  0  0  0  0  0  0  0  0
   18.6590   19.2162   21.0964 C   0  0  0  0  0  0  0  0  0  0  0  0
   18.3076   18.1804   21.2002 H   0  0  0  0  0  0  0  0  0  0  0  0
   17.8011   19.7814   20.7065 H   0  0  0  0  0  0  0  0  0  0  0  0
   19.7871   19.2925   20.0359 C   0  0  0  0  0  0  0  0  0  0  0  0
   20.0599   20.3429   19.8629 H   0  0  0  0  0  0  0  0  0  0  0  0
   19.3922   18.9201   19.0803 H   0  0  0  0  0  0  0  0  0  0  0  0
   21.0548   18.4868   20.3947 C   0  0  0  0  0  0  0  0  0  0  0  0
   20.8071   17.4458   20.6393 H   0  0  0  0  0  0  0  0  0  0  0  0
   21.5816   18.9317   21.2478 H   0  0  0  0  0  0  0  0  0  0  0  0
   21.7540   18.4756   19.5486 H   0  0  0  0  0  0  0  0  0  0  0  0
  1  2  1  0  0  0  0
  1  3  1  0  0  0  0
  1  4  1  0  0  0  0
  1  5  1  0  0  0  0
  5  6  1  0  0  0  0
  5  7  1  0  0  0  0
  5  8  1  0  0  0  0
  8  9  1  0  0  0  0
  8 10  1  0  0  0  0
  8 11  1  0  0  0  0
 11 12  1  0  0  0  0
 11 13  1  0  0  0  0
 11 14  1  0  0  0  0
 14 15  1  0  0  0  0
 14 16  1  0  0  0  0
 14 17  1  0  0  0  0
 17 18  1  0  0  0  0
 17 19  1  0  0  0  0
 17 20  1  0  0  0  0
 20 21  1  0  0  0  0
 20 22  1  0  0  0  0
 20 23  1  0  0  0  0
M  END
> <VM2 Rank>
46

> <Conf_Id>
566

> <Probability>
0.05

> <Sum Probability>
99.36

> <Delta G>
3.305

> <G>
41.221

> <E>
13.359

> <-TS>
27.861

> <U+W>
-5.420

> <U>
50.253

> <W>
-55.673

> <W(PB)>
-57.770

> <W(SA)>
2.097

> <Valence>
4.702

> <Coulomb>
44.992

> <VdW>
0.559

> <VdW6>
-6.152

> <VdW12>
6.711

> <Bond>
0.198

> <Angle>
1.163

> <Pdih>
3.340

> <Idih>
0.000

> <Tether>
0.000

$$$$
VeraChem MOL file


 23 22  0  0  0  0  0  0  0  0999 V2000     
   19.5598   18.0209   25.8297 N   0  3  0  0  0  0  0  0  0  0  0  0
   19.3380   17.0887   25.4654 H   0  0  0  0  0  0  0  0  0  0  0  0
   19.0150   18.1417   26.6904 H   0  0  0  0  0  0  0  0  0  0  0  0
   20.5480   18.0113   26.1019 H   0  0  0  0  0  0  0  0  0  0  0  0
   19.2624   19.1092   24.8183 C   0  0  0  0  0  0  0  0  0  0  0  0
   19.4923   20.0725   25.2818 H   0  0  0  0  0  0  0  0  0  0  0  0
   18.1921   19.0810   24.5970 H   0  0  0  0  0  0  0  0  0  0  0  0
   20.0649   18.9576   23.5139 C   0  0  0  0  0  0  0  0  0  0  0  0
   21.1383   18.9696   23.7454 H   0  0  0  0  0  0  0  0  0  0  0  0
   19.8478   17.9799   23.0692 H   0  0  0  0  0  0  0  0  0  0  0  0
   19.7386   20.0950   22.5165 C   0  0  0  0  0  0  0  0  0  0  0  0
   19.9928   21.0512   22.9949 H   0  0  0  0  0  0  0  0  0  0  0  0
   18.6584   20.1328   22.3185 H   0  0  0  0  0  0  0  0  0  0  0  0
   20.5215   19.9911   21.1813 C   0  0  0  0  0  0  0  0  0  0  0  0
   20.7537   21.0098   20.8411 H   0  0  0  0  0  0  0  0  0  0  0  0
   21.4934   19.5058   21.3454 H   0  0  0  0  0  0  0  0  0  0  0  0
   19.7579   19.2804   20.0346 C   0  0  0  0  0  0  0  0  0  0  0  0
   20.3730   19.3282   19.1250 H   0  0  0  0  0  0  0  0  0  0  0  0
   18.8361   19.8339   19.8071 H   0  0  0  0  0  0  0  0  0  0  0  0
   19.4108   17.8028   20.3197 C   0  0  0  0  0  0  0  0  0  0  0  0
   20.3028   17.2360   20.6162 H   0  0  0  0  0  0  0  0  0  0  0  0
   18.9936   17.3272   19.4226 H   0  0  0  0  0  0  0  0  0  0  0  0
   18.6599   17.7162   21.1145 H   0  0  0  0  0  0  0  0  0  0  0  0
  1  2  1  0  0  0  0
  1  3  1  0  0  0  0
  1  4  1  0  0  0  0
  1  5  1  0  0  0  0
  5  6  1  0  0  0  0
  5  7  1  0  0  0  0
  5  8  1  0  0  0  0
  8  9  1  0  0  0  0
  8 10  1  0  0  0  0
  8 11  1  0  0  0  0
 11 12  1  0  0  0  0
 11 13  1  0  0  0  0
 11 14  1  0  0  0  0
 14 15  1  0  0  0  0
 14 16  1  0  0  0  0
 14 17  1  0  0  0  0
 17 18  1  0  0  0  0
 17 19  1  0  0  0  0
 17 20  1  0  0  0  0
 20 21  1  0  0  0  0
 20 22  1  0  0  0  0
 20 23  1  0  0  0  0
M  END
> <VM2 Rank>
47

> <Conf_Id>
164

> <Probability>
0.05

> <Sum Probability>
99.40

> <Delta G>
3.353

> <G>
41.269

> <E>
13.408

> <-TS>
27.861

> <U+W>
-5.371

> <U>
50.253

> <W>
-55.624

> <W(PB)>
-57.711

> <W(SA)>
2.087

> <Valence>
4.702

> <Coulomb>
44.992

> <VdW>
0.559

> <VdW6>
-6.152

> <VdW12>
6.711

> <Bond>
0.198

> <Angle>
1.163

> <Pdih>
3.340

> <Idih>
0.000

> <Tether>
0.000

$$$$
VeraChem MOL file


 23 22  0  0  0  0  0  0  0  0999 V2000     
   20.1981   17.9111   25.0029 N   0  3  0  0  0  0  0  0  0  0  0  0
   21.0076   18.3259   25.4756 H   0  0  0  0  0  0  0  0  0  0  0  0
   20.5262   17.5461   24.1048 H   0  0  0  0  0  0  0  0  0  0  0  0
   19.9041   17.1064   25.5670 H   0  0  0  0  0  0  0  0  0  0  0  0
   19.0749   18.9146   24.8277 C   0  0  0  0  0  0  0  0  0  0  0  0
   18.7798   19.2401   25.8290 H   0  0  0  0  0  0  0  0  0  0  0  0
   18.2213   18.4056   24.3721 H   0  0  0  0  0  0  0  0  0  0  0  0
   19.4544   20.1533   23.9895 C   0  0  0  0  0  0  0  0  0  0  0  0
   18.7507   20.9568   24.2441 H   0  0  0  0  0  0  0  0  0  0  0  0
   20.4472   20.5181   24.2846 H   0  0  0  0  0  0  0  0  0  0  0  0
   19.3919   19.9356   22.4559 C   0  0  0  0  0  0  0  0  0  0  0  0
   19.5580   20.9047   21.9656 H   0  0  0  0  0  0  0  0  0  0  0  0
   18.3768   19.6208   22.1790 H   0  0  0  0  0  0  0  0  0  0  0  0
   20.4243   18.9163   21.9125 C   0  0  0  0  0  0  0  0  0  0  0  0
   21.4128   19.1407   22.3363 H   0  0  0  0  0  0  0  0  0  0  0  0
   20.1582   17.9033   22.2389 H   0  0  0  0  0  0  0  0  0  0  0  0
   20.5379   18.9265   20.3690 C   0  0  0  0  0  0  0  0  0  0  0  0
   21.3461   18.2448   20.0692 H   0  0  0  0  0  0  0  0  0  0  0  0
   20.8365   19.9265   20.0245 H   0  0  0  0  0  0  0  0  0  0  0  0
   19.2344   18.4996   19.6565 C   0  0  0  0  0  0  0  0  0  0  0  0
   19.3902   18.4433   18.5714 H   0  0  0  0  0  0  0  0  0  0  0  0
   18.4238   19.2166   19.8367 H   0  0  0  0  0  0  0  0  0  0  0  0
   18.9023   17.5112   19.9995 H   0  0  0  0  0  0  0  0  0  0  0  0
  1  2  1  0  0  0  0
  1  3  1  0  0  0  0
  1  4  1  0  0  0  0
  1  5  1  0  0  0  0
  5  6  1  0  0  0  0
  5  7  1  0  0  0  0
  5  8  1  0  0  0  0
  8  9  1  0  0  0  0
  8 10  1  0  0  0  0
  8 11  1  0  0  0  0
 11 12  1  0  0  0  0
 11 13  1  0  0  0  0
 11 14  1  0  0  0  0
 14 15  1  0  0  0  0
 14 16  1  0  0  0  0
 14 17  1  0  0  0  0
 17 18  1  0  0  0  0
 17 19  1  0  0  0  0
 17 20  1  0  0  0  0
 20 21  1  0  0  0  0
 20 22  1  0  0  0  0
 20 23  1  0  0  0  0
M  END
> <VM2 Rank>
48

> <Conf_Id>
485

> <Probability>
0.05

> <Sum Probability>
99.45

> <Delta G>
3.369

> <G>
41.285

> <E>
13.483

> <-TS>
27.802

> <U+W>
-5.296

> <U>
50.658

> <W>
-55.954

> <W(PB)>
-58.036

> <W(SA)>
2.082

> <Valence>
3.782

> <Coulomb>
46.354

> <VdW>
0.523

> <VdW6>
-6.754

> <VdW12>
7.277

> <Bond>
0.207

> <Angle>
1.137

> <Pdih>
2.438

> <Idih>
0.000

> <Tether>
0.000

$$$$
VeraChem MOL file


 23 22  0  0  0  0  0  0  0  0999 V2000     
   19.5926   17.9219   25.7385 N   0  3  0  0  0  0  0  0  0  0  0  0
   19.3929   18.1119   26.7265 H   0  0  0  0  0  0  0  0  0  0  0  0
   20.5130   17.4721   25.7020 H   0  0  0  0  0  0  0  0  0  0  0  0
   18.9054   17.2294   25.4237 H   0  0  0  0  0  0  0  0  0  0  0  0
   19.5468   19.1849   24.9026 C   0  0  0  0  0  0  0  0  0  0  0  0
   20.2795   19.8863   25.3108 H   0  0  0  0  0  0  0  0  0  0  0  0
   18.5520   19.6255   25.0107 H   0  0  0  0  0  0  0  0  0  0  0  0
   19.8432   18.9345   23.4133 C   0  0  0  0  0  0  0  0  0  0  0  0
   20.8370   18.4790   23.3099 H   0  0  0  0  0  0  0  0  0  0  0  0
   19.1096   18.2191   23.0214 H   0  0  0  0  0  0  0  0  0  0  0  0
   19.7825   20.2463   22.5985 C   0  0  0  0  0  0  0  0  0  0  0  0
   20.4206   20.9973   23.0848 H   0  0  0  0  0  0  0  0  0  0  0  0
   18.7602   20.6483   22.6298 H   0  0  0  0  0  0  0  0  0  0  0  0
   20.2364   20.1065   21.1222 C   0  0  0  0  0  0  0  0  0  0  0  0
   20.1935   21.1061   20.6679 H   0  0  0  0  0  0  0  0  0  0  0  0
   21.2928   19.8076   21.0782 H   0  0  0  0  0  0  0  0  0  0  0  0
   19.3719   19.1489   20.2620 C   0  0  0  0  0  0  0  0  0  0  0  0
   19.3157   19.5511   19.2406 H   0  0  0  0  0  0  0  0  0  0  0  0
   18.3384   19.1279   20.6350 H   0  0  0  0  0  0  0  0  0  0  0  0
   19.9427   17.7139   20.1770 C   0  0  0  0  0  0  0  0  0  0  0  0
   20.9495   17.7182   19.7397 H   0  0  0  0  0  0  0  0  0  0  0  0
   19.3067   17.0851   19.5406 H   0  0  0  0  0  0  0  0  0  0  0  0
   20.0045   17.2348   21.1601 H   0  0  0  0  0  0  0  0  0  0  0  0
  1  2  1  0  0  0  0
  1  3  1  0  0  0  0
  1  4  1  0  0  0  0
  1  5  1  0  0  0  0
  5  6  1  0  0  0  0
  5  7  1  0  0  0  0
  5  8  1  0  0  0  0
  8  9  1  0  0  0  0
  8 10  1  0  0  0  0
  8 11  1  0  0  0  0
 11 12  1  0  0  0  0
 11 13  1  0  0  0  0
 11 14  1  0  0  0  0
 14 15  1  0  0  0  0
 14 16  1  0  0  0  0
 14 17  1  0  0  0  0
 17 18  1  0  0  0  0
 17 19  1  0  0  0  0
 17 20  1  0  0  0  0
 20 21  1  0  0  0  0
 20 22  1  0  0  0  0
 20 23  1  0  0  0  0
M  END
> <VM2 Rank>
49

> <Conf_Id>
326

> <Probability>
0.04

> <Sum Probability>
99.49

> <Delta G>
3.396

> <G>
41.313

> <E>
13.460

> <-TS>
27.853

> <U+W>
-5.319

> <U>
50.301

> <W>
-55.620

> <W(PB)>
-57.719

> <W(SA)>
2.099

> <Valence>
4.724

> <Coulomb>
45.004

> <VdW>
0.574

> <VdW6>
-6.145

> <VdW12>
6.719

> <Bond>
0.198

> <Angle>
1.201

> <Pdih>
3.325

> <Idih>
0.000

> <Tether>
0.000

$$$$
VeraChem MOL file


 23 22  0  0  0  0  0  0  0  0999 V2000     
   20.4227   18.2673   25.7763 N   0  3  0  0  0  0  0  0  0  0  0  0
   21.4197   18.2754   25.5382 H   0  0  0  0  0  0  0  0  0  0  0  0
   20.0979   17.2995   25.6831 H   0  0  0  0  0  0  0  0  0  0  0  0
   20.3518   18.5109   26.7701 H   0  0  0  0  0  0  0  0  0  0  0  0
   19.6253   19.2176   24.9061 C   0  0  0  0  0  0  0  0  0  0  0  0
   20.0033   20.2293   25.0768 H   0  0  0  0  0  0  0  0  0  0  0  0
   18.5828   19.1804   25.2335 H   0  0  0  0  0  0  0  0  0  0  0  0
   19.7100   18.8791   23.4072 C   0  0  0  0  0  0  0  0  0  0  0  0
   20.7618   18.9065   23.0967 H   0  0  0  0  0  0  0  0  0  0  0  0
   19.3430   17.8575   23.2419 H   0  0  0  0  0  0  0  0  0  0  0  0
   18.8870   19.8737   22.5576 C   0  0  0  0  0  0  0  0  0  0  0  0
   19.3174   20.8801   22.6552 H   0  0  0  0  0  0  0  0  0  0  0  0
   17.8696   19.9359   22.9685 H   0  0  0  0  0  0  0  0  0  0  0  0
   18.7819   19.5013   21.0559 C   0  0  0  0  0  0  0  0  0  0  0  0
   18.2555   18.5439   20.9397 H   0  0  0  0  0  0  0  0  0  0  0  0
   18.1395   20.2514   20.5743 H   0  0  0  0  0  0  0  0  0  0  0  0
   20.1335   19.4658   20.2967 C   0  0  0  0  0  0  0  0  0  0  0  0
   20.8448   20.1707   20.7493 H   0  0  0  0  0  0  0  0  0  0  0  0
   19.9674   19.8223   19.2704 H   0  0  0  0  0  0  0  0  0  0  0  0
   20.7556   18.0522   20.2141 C   0  0  0  0  0  0  0  0  0  0  0  0
   21.6966   18.0795   19.6496 H   0  0  0  0  0  0  0  0  0  0  0  0
   20.0798   17.3564   19.7000 H   0  0  0  0  0  0  0  0  0  0  0  0
   20.9751   17.6386   21.2044 H   0  0  0  0  0  0  0  0  0  0  0  0
  1  2  1  0  0  0  0
  1  3  1  0  0  0  0
  1  4  1  0  0  0  0
  1  5  1  0  0  0  0
  5  6  1  0  0  0  0
  5  7  1  0  0  0  0
  5  8  1  0  0  0  0
  8  9  1  0  0  0  0
  8 10  1  0  0  0  0
  8 11  1  0  0  0  0
 11 12  1  0  0  0  0
 11 13  1  0  0  0  0
 11 14  1  0  0  0  0
 14 15  1  0  0  0  0
 14 16  1  0  0  0  0
 14 17  1  0  0  0  0
 17 18  1  0  0  0  0
 17 19  1  0  0  0  0
 17 20  1  0  0  0  0
 20 21  1  0  0  0  0
 20 22  1  0  0  0  0
 20 23  1  0  0  0  0
M  END
> <VM2 Rank>
50

> <Conf_Id>
177

> <Probability>
0.04

> <Sum Probability>
99.53

> <Delta G>
3.454

> <G>
41.370

> <E>
13.518

> <-TS>
27.853

> <U+W>
-5.261

> <U>
50.301

> <W>
-55.563

> <W(PB)>
-57.697

> <W(SA)>
2.134

> <Valence>
4.724

> <Coulomb>
45.004

> <VdW>
0.574

> <VdW6>
-6.145

> <VdW12>
6.719

> <Bond>
0.198

> <Angle>
1.201

> <Pdih>
3.325

> <Idih>
0.000

> <Tether>
0.000

$$$$
VeraChem MOL file


 23 22  0  0  0  0  0  0  0  0999 V2000     
   19.0031   18.0595   25.0904 N   0  3  0  0  0  0  0  0  0  0  0  0
   19.6917   17.3464   25.3514 H   0  0  0  0  0  0  0  0  0  0  0  0
   18.5828   17.7637   24.2053 H   0  0  0  0  0  0  0  0  0  0  0  0
   18.2631   18.0323   25.8002 H   0  0  0  0  0  0  0  0  0  0  0  0
   19.6318   19.4358   24.9867 C   0  0  0  0  0  0  0  0  0  0  0  0
   20.0448   19.6712   25.9714 H   0  0  0  0  0  0  0  0  0  0  0  0
   18.8457   20.1632   24.7669 H   0  0  0  0  0  0  0  0  0  0  0  0
   20.7546   19.5426   23.9338 C   0  0  0  0  0  0  0  0  0  0  0  0
   21.4050   20.3785   24.2239 H   0  0  0  0  0  0  0  0  0  0  0  0
   21.3867   18.6452   23.9648 H   0  0  0  0  0  0  0  0  0  0  0  0
   20.2616   19.8063   22.4877 C   0  0  0  0  0  0  0  0  0  0  0  0
   21.1462   19.9766   21.8611 H   0  0  0  0  0  0  0  0  0  0  0  0
   19.6844   20.7409   22.4634 H   0  0  0  0  0  0  0  0  0  0  0  0
   19.4130   18.6602   21.8816 C   0  0  0  0  0  0  0  0  0  0  0  0
   19.9524   17.7072   21.9705 H   0  0  0  0  0  0  0  0  0  0  0  0
   18.4844   18.5559   22.4556 H   0  0  0  0  0  0  0  0  0  0  0  0
   19.0244   18.8971   20.4018 C   0  0  0  0  0  0  0  0  0  0  0  0
   18.5012   19.8585   20.3031 H   0  0  0  0  0  0  0  0  0  0  0  0
   18.3042   18.1237   20.1001 H   0  0  0  0  0  0  0  0  0  0  0  0
   20.2275   18.8555   19.4319 C   0  0  0  0  0  0  0  0  0  0  0  0
   19.8840   18.9260   18.3918 H   0  0  0  0  0  0  0  0  0  0  0  0
   20.7873   17.9171   19.5368 H   0  0  0  0  0  0  0  0  0  0  0  0
   20.9181   19.6895   19.6063 H   0  0  0  0  0  0  0  0  0  0  0  0
  1  2  1  0  0  0  0
  1  3  1  0  0  0  0
  1  4  1  0  0  0  0
  1  5  1  0  0  0  0
  5  6  1  0  0  0  0
  5  7  1  0  0  0  0
  5  8  1  0  0  0  0
  8  9  1  0  0  0  0
  8 10  1  0  0  0  0
  8 11  1  0  0  0  0
 11 12  1  0  0  0  0
 11 13  1  0  0  0  0
 11 14  1  0  0  0  0
 14 15  1  0  0  0  0
 14 16  1  0  0  0  0
 14 17  1  0  0  0  0
 17 18  1  0  0  0  0
 17 19  1  0  0  0  0
 17 20  1  0  0  0  0
 20 21  1  0  0  0  0
 20 22  1  0  0  0  0
 20 23  1  0  0  0  0
M  END
> <VM2 Rank>
51

> <Conf_Id>
699

> <Probability>
0.04

> <Sum Probability>
99.57

> <Delta G>
3.516

> <G>
41.432

> <E>
13.746

> <-TS>
27.686

> <U+W>
-5.033

> <U>
50.916

> <W>
-55.950

> <W(PB)>
-58.033

> <W(SA)>
2.084

> <Valence>
3.987

> <Coulomb>
46.335

> <VdW>
0.594

> <VdW6>
-6.627

> <VdW12>
7.221

> <Bond>
0.215

> <Angle>
1.275

> <Pdih>
2.497

> <Idih>
0.000

> <Tether>
0.000

$$$$
VeraChem MOL file


 23 22  0  0  0  0  0  0  0  0999 V2000     
   20.7893   18.8020   25.1716 N   0  3  0  0  0  0  0  0  0  0  0  0
   21.2731   19.2837   25.9371 H   0  0  0  0  0  0  0  0  0  0  0  0
   21.3622   18.9195   24.3316 H   0  0  0  0  0  0  0  0  0  0  0  0
   20.7903   17.8030   25.4011 H   0  0  0  0  0  0  0  0  0  0  0  0
   19.3817   19.3316   24.9753 C   0  0  0  0  0  0  0  0  0  0  0  0
   19.4357   20.4084   24.7939 H   0  0  0  0  0  0  0  0  0  0  0  0
   18.8488   19.1734   25.9169 H   0  0  0  0  0  0  0  0  0  0  0  0
   18.5993   18.6463   23.8356 C   0  0  0  0  0  0  0  0  0  0  0  0
   18.7883   17.5646   23.8462 H   0  0  0  0  0  0  0  0  0  0  0  0
   17.5285   18.7662   24.0474 H   0  0  0  0  0  0  0  0  0  0  0  0
   18.8708   19.2281   22.4244 C   0  0  0  0  0  0  0  0  0  0  0  0
   18.6160   20.2968   22.4148 H   0  0  0  0  0  0  0  0  0  0  0  0
   18.1780   18.7422   21.7258 H   0  0  0  0  0  0  0  0  0  0  0  0
   20.3250   19.0402   21.9233 C   0  0  0  0  0  0  0  0  0  0  0  0
   21.0060   19.6060   22.5704 H   0  0  0  0  0  0  0  0  0  0  0  0
   20.6145   17.9832   22.0011 H   0  0  0  0  0  0  0  0  0  0  0  0
   20.5446   19.5297   20.4710 C   0  0  0  0  0  0  0  0  0  0  0  0
   21.6212   19.5044   20.2513 H   0  0  0  0  0  0  0  0  0  0  0  0
   20.2383   20.5814   20.3817 H   0  0  0  0  0  0  0  0  0  0  0  0
   19.8054   18.6790   19.4129 C   0  0  0  0  0  0  0  0  0  0  0  0
   20.0695   17.6175   19.5046 H   0  0  0  0  0  0  0  0  0  0  0  0
   20.0771   19.0054   18.4006 H   0  0  0  0  0  0  0  0  0  0  0  0
   18.7165   18.7721   19.5061 H   0  0  0  0  0  0  0  0  0  0  0  0
  1  2  1  0  0  0  0
  1  3  1  0  0  0  0
  1  4  1  0  0  0  0
  1  5  1  0  0  0  0
  5  6  1  0  0  0  0
  5  7  1  0  0  0  0
  5  8  1  0  0  0  0
  8  9  1  0  0  0  0
  8 10  1  0  0  0  0
  8 11  1  0  0  0  0
 11 12  1  0  0  0  0
 11 13  1  0  0  0  0
 11 14  1  0  0  0  0
 14 15  1  0  0  0  0
 14 16  1  0  0  0  0
 14 17  1  0  0  0  0
 17 18  1  0  0  0  0
 17 19  1  0  0  0  0
 17 20  1  0  0  0  0
 20 21  1  0  0  0  0
 20 22  1  0  0  0  0
 20 23  1  0  0  0  0
M  END
> <VM2 Rank>
52

> <Conf_Id>
353

> <Probability>
0.04

> <Sum Probability>
99.60

> <Delta G>
3.521

> <G>
41.438

> <E>
13.750

> <-TS>
27.687

> <U+W>
-5.029

> <U>
50.917

> <W>
-55.945

> <W(PB)>
-58.003

> <W(SA)>
2.058

> <Valence>
3.987

> <Coulomb>
46.335

> <VdW>
0.594

> <VdW6>
-6.628

> <VdW12>
7.222

> <Bond>
0.215

> <Angle>
1.274

> <Pdih>
2.498

> <Idih>
0.000

> <Tether>
0.000

$$$$
VeraChem MOL file


 23 22  0  0  0  0  0  0  0  0999 V2000     
   20.2011   18.0339   25.4169 N   0  3  0  0  0  0  0  0  0  0  0  0
   21.0253   17.4589   25.6218 H   0  0  0  0  0  0  0  0  0  0  0  0
   19.3888   17.4092   25.4387 H   0  0  0  0  0  0  0  0  0  0  0  0
   20.0961   18.6919   26.1959 H   0  0  0  0  0  0  0  0  0  0  0  0
   20.3293   18.7486   24.0871 C   0  0  0  0  0  0  0  0  0  0  0  0
   20.4730   17.9914   23.3143 H   0  0  0  0  0  0  0  0  0  0  0  0
   21.2271   19.3714   24.1253 H   0  0  0  0  0  0  0  0  0  0  0  0
   19.1073   19.6261   23.7542 C   0  0  0  0  0  0  0  0  0  0  0  0
   18.1923   19.0191   23.7522 H   0  0  0  0  0  0  0  0  0  0  0  0
   18.9883   20.3628   24.5598 H   0  0  0  0  0  0  0  0  0  0  0  0
   19.2446   20.3856   22.4101 C   0  0  0  0  0  0  0  0  0  0  0  0
   20.2736   20.7466   22.2800 H   0  0  0  0  0  0  0  0  0  0  0  0
   18.6245   21.2906   22.4707 H   0  0  0  0  0  0  0  0  0  0  0  0
   18.7793   19.5915   21.1593 C   0  0  0  0  0  0  0  0  0  0  0  0
   17.7198   19.3269   21.2806 H   0  0  0  0  0  0  0  0  0  0  0  0
   18.8194   20.2606   20.2887 H   0  0  0  0  0  0  0  0  0  0  0  0
   19.5771   18.3061   20.8275 C   0  0  0  0  0  0  0  0  0  0  0  0
   19.1364   17.8465   19.9317 H   0  0  0  0  0  0  0  0  0  0  0  0
   19.4554   17.5653   21.6276 H   0  0  0  0  0  0  0  0  0  0  0  0
   21.0772   18.5652   20.5589 C   0  0  0  0  0  0  0  0  0  0  0  0
   21.2109   19.2947   19.7497 H   0  0  0  0  0  0  0  0  0  0  0  0
   21.5801   17.6367   20.2593 H   0  0  0  0  0  0  0  0  0  0  0  0
   21.5902   18.9467   21.4497 H   0  0  0  0  0  0  0  0  0  0  0  0
  1  2  1  0  0  0  0
  1  3  1  0  0  0  0
  1  4  1  0  0  0  0
  1  5  1  0  0  0  0
  5  6  1  0  0  0  0
  5  7  1  0  0  0  0
  5  8  1  0  0  0  0
  8  9  1  0  0  0  0
  8 10  1  0  0  0  0
  8 11  1  0  0  0  0
 11 12  1  0  0  0  0
 11 13  1  0  0  0  0
 11 14  1  0  0  0  0
 14 15  1  0  0  0  0
 14 16  1  0  0  0  0
 14 17  1  0  0  0  0
 17 18  1  0  0  0  0
 17 19  1  0  0  0  0
 17 20  1  0  0  0  0
 20 21  1  0  0  0  0
 20 22  1  0  0  0  0
 20 23  1  0  0  0  0
M  END
> <VM2 Rank>
53

> <Conf_Id>
141

> <Probability>
0.03

> <Sum Probability>
99.63

> <Delta G>
3.567

> <G>
41.483

> <E>
13.154

> <-TS>
28.329

> <U+W>
-5.625

> <U>
50.461

> <W>
-56.086

> <W(PB)>
-58.152

> <W(SA)>
2.066

> <Valence>
4.630

> <Coulomb>
45.564

> <VdW>
0.266

> <VdW6>
-7.363

> <VdW12>
7.629

> <Bond>
0.225

> <Angle>
1.702

> <Pdih>
2.703

> <Idih>
0.000

> <Tether>
0.000

$$$$
VeraChem MOL file


 23 22  0  0  0  0  0  0  0  0999 V2000     
   19.9425   17.9261   25.4051 N   0  3  0  0  0  0  0  0  0  0  0  0
   19.7566   16.9301   25.5640 H   0  0  0  0  0  0  0  0  0  0  0  0
   19.4893   18.4389   26.1682 H   0  0  0  0  0  0  0  0  0  0  0  0
   20.9532   18.0612   25.5099 H   0  0  0  0  0  0  0  0  0  0  0  0
   19.4490   18.3817   24.0470 C   0  0  0  0  0  0  0  0  0  0  0  0
   18.3752   18.1827   23.9953 H   0  0  0  0  0  0  0  0  0  0  0  0
   19.9451   17.7713   23.2902 H   0  0  0  0  0  0  0  0  0  0  0  0
   19.7093   19.8770   23.7817 C   0  0  0  0  0  0  0  0  0  0  0  0
   19.2079   20.4544   24.5699 H   0  0  0  0  0  0  0  0  0  0  0  0
   20.7812   20.0982   23.8703 H   0  0  0  0  0  0  0  0  0  0  0  0
   19.1788   20.3581   22.4071 C   0  0  0  0  0  0  0  0  0  0  0  0
   18.9671   21.4334   22.4863 H   0  0  0  0  0  0  0  0  0  0  0  0
   18.2117   19.8872   22.1860 H   0  0  0  0  0  0  0  0  0  0  0  0
   20.1650   20.1691   21.2224 C   0  0  0  0  0  0  0  0  0  0  0  0
   19.7300   20.6402   20.3302 H   0  0  0  0  0  0  0  0  0  0  0  0
   21.0858   20.7299   21.4340 H   0  0  0  0  0  0  0  0  0  0  0  0
   20.5428   18.7087   20.8715 C   0  0  0  0  0  0  0  0  0  0  0  0
   21.0913   18.2471   21.7022 H   0  0  0  0  0  0  0  0  0  0  0  0
   21.2471   18.7262   20.0280 H   0  0  0  0  0  0  0  0  0  0  0  0
   19.3285   17.8363   20.4792 C   0  0  0  0  0  0  0  0  0  0  0  0
   18.6294   17.7126   21.3148 H   0  0  0  0  0  0  0  0  0  0  0  0
   19.6575   16.8352   20.1717 H   0  0  0  0  0  0  0  0  0  0  0  0
   18.7804   18.2815   19.6388 H   0  0  0  0  0  0  0  0  0  0  0  0
  1  2  1  0  0  0  0
  1  3  1  0  0  0  0
  1  4  1  0  0  0  0
  1  5  1  0  0  0  0
  5  6  1  0  0  0  0
  5  7  1  0  0  0  0
  5  8  1  0  0  0  0
  8  9  1  0  0  0  0
  8 10  1  0  0  0  0
  8 11  1  0  0  0  0
 11 12  1  0  0  0  0
 11 13  1  0  0  0  0
 11 14  1  0  0  0  0
 14 15  1  0  0  0  0
 14 16  1  0  0  0  0
 14 17  1  0  0  0  0
 17 18  1  0  0  0  0
 17 19  1  0  0  0  0
 17 20  1  0  0  0  0
 20 21  1  0  0  0  0
 20 22  1  0  0  0  0
 20 23  1  0  0  0  0
M  END
> <VM2 Rank>
54

> <Conf_Id>
181

> <Probability>
0.03

> <Sum Probability>
99.67

> <Delta G>
3.584

> <G>
41.501

> <E>
13.171

> <-TS>
28.330

> <U+W>
-5.608

> <U>
50.461

> <W>
-56.069

> <W(PB)>
-58.143

> <W(SA)>
2.075

> <Valence>
4.630

> <Coulomb>
45.564

> <VdW>
0.267

> <VdW6>
-7.363

> <VdW12>
7.629

> <Bond>
0.225

> <Angle>
1.702

> <Pdih>
2.703

> <Idih>
0.000

> <Tether>
0.000

$$$$
VeraChem MOL file


 23 22  0  0  0  0  0  0  0  0999 V2000     
   19.6558   19.2720   25.7989 N   0  3  0  0  0  0  0  0  0  0  0  0
   19.8822   20.2270   25.5051 H   0  0  0  0  0  0  0  0  0  0  0  0
   20.5342   18.8253   26.0808 H   0  0  0  0  0  0  0  0  0  0  0  0
   19.0751   19.3473   26.6409 H   0  0  0  0  0  0  0  0  0  0  0  0
   18.9560   18.4961   24.7000 C   0  0  0  0  0  0  0  0  0  0  0  0
   18.0202   19.0103   24.4646 H   0  0  0  0  0  0  0  0  0  0  0  0
   18.7105   17.5075   25.0974 H   0  0  0  0  0  0  0  0  0  0  0  0
   19.7964   18.3369   23.4182 C   0  0  0  0  0  0  0  0  0  0  0  0
   20.7370   17.8248   23.6607 H   0  0  0  0  0  0  0  0  0  0  0  0
   19.2546   17.6752   22.7332 H   0  0  0  0  0  0  0  0  0  0  0  0
   20.0975   19.6924   22.7293 C   0  0  0  0  0  0  0  0  0  0  0  0
   20.7079   20.3013   23.4094 H   0  0  0  0  0  0  0  0  0  0  0  0
   19.1673   20.2548   22.5686 H   0  0  0  0  0  0  0  0  0  0  0  0
   20.8670   19.5446   21.3906 C   0  0  0  0  0  0  0  0  0  0  0  0
   21.5642   20.3892   21.3015 H   0  0  0  0  0  0  0  0  0  0  0  0
   21.4954   18.6435   21.4089 H   0  0  0  0  0  0  0  0  0  0  0  0
   19.9717   19.5448   20.1250 C   0  0  0  0  0  0  0  0  0  0  0  0
   20.6209   19.5098   19.2389 H   0  0  0  0  0  0  0  0  0  0  0  0
   19.4230   20.4949   20.0621 H   0  0  0  0  0  0  0  0  0  0  0  0
   18.9716   18.3703   20.0521 C   0  0  0  0  0  0  0  0  0  0  0  0
   19.4830   17.4063   20.1707 H   0  0  0  0  0  0  0  0  0  0  0  0
   18.4606   18.3617   19.0806 H   0  0  0  0  0  0  0  0  0  0  0  0
   18.1997   18.4552   20.8268 H   0  0  0  0  0  0  0  0  0  0  0  0
  1  2  1  0  0  0  0
  1  3  1  0  0  0  0
  1  4  1  0  0  0  0
  1  5  1  0  0  0  0
  5  6  1  0  0  0  0
  5  7  1  0  0  0  0
  5  8  1  0  0  0  0
  8  9  1  0  0  0  0
  8 10  1  0  0  0  0
  8 11  1  0  0  0  0
 11 12  1  0  0  0  0
 11 13  1  0  0  0  0
 11 14  1  0  0  0  0
 14 15  1  0  0  0  0
 14 16  1  0  0  0  0
 14 17  1  0  0  0  0
 17 18  1  0  0  0  0
 17 19  1  0  0  0  0
 17 20  1  0  0  0  0
 20 21  1  0  0  0  0
 20 22  1  0  0  0  0
 20 23  1  0  0  0  0
M  END
> <VM2 Rank>
55

> <Conf_Id>
475

> <Probability>
0.03

> <Sum Probability>
99.69

> <Delta G>
3.653

> <G>
41.569

> <E>
13.583

> <-TS>
27.986

> <U+W>
-5.196

> <U>
50.626

> <W>
-55.822

> <W(PB)>
-57.895

> <W(SA)>
2.073

> <Valence>
4.836

> <Coulomb>
45.097

> <VdW>
0.692

> <VdW6>
-6.655

> <VdW12>
7.347

> <Bond>
0.223

> <Angle>
1.167

> <Pdih>
3.447

> <Idih>
0.000

> <Tether>
0.000

$$$$
VeraChem MOL file


 23 22  0  0  0  0  0  0  0  0999 V2000     
   19.4177   19.1732   25.7880 N   0  3  0  0  0  0  0  0  0  0  0  0
   19.7070   19.6102   26.6696 H   0  0  0  0  0  0  0  0  0  0  0  0
   19.0950   18.2272   26.0153 H   0  0  0  0  0  0  0  0  0  0  0  0
   18.6058   19.6966   25.4469 H   0  0  0  0  0  0  0  0  0  0  0  0
   20.5435   19.1561   24.7723 C   0  0  0  0  0  0  0  0  0  0  0  0
   21.3847   18.6191   25.2193 H   0  0  0  0  0  0  0  0  0  0  0  0
   20.8551   20.1887   24.5937 H   0  0  0  0  0  0  0  0  0  0  0  0
   20.1654   18.4902   23.4351 C   0  0  0  0  0  0  0  0  0  0  0  0
   21.0673   18.4286   22.8158 H   0  0  0  0  0  0  0  0  0  0  0  0
   19.8484   17.4553   23.6203 H   0  0  0  0  0  0  0  0  0  0  0  0
   19.0481   19.2560   22.6815 C   0  0  0  0  0  0  0  0  0  0  0  0
   19.3158   20.3164   22.5754 H   0  0  0  0  0  0  0  0  0  0  0  0
   18.1358   19.2318   23.2922 H   0  0  0  0  0  0  0  0  0  0  0  0
   18.7162   18.6504   21.2926 C   0  0  0  0  0  0  0  0  0  0  0  0
   18.9113   17.5691   21.2911 H   0  0  0  0  0  0  0  0  0  0  0  0
   17.6358   18.7558   21.1225 H   0  0  0  0  0  0  0  0  0  0  0  0
   19.4429   19.3249   20.1009 C   0  0  0  0  0  0  0  0  0  0  0  0
   19.1606   20.3858   20.0502 H   0  0  0  0  0  0  0  0  0  0  0  0
   19.0805   18.8694   19.1687 H   0  0  0  0  0  0  0  0  0  0  0  0
   20.9821   19.2063   20.1437 C   0  0  0  0  0  0  0  0  0  0  0  0
   21.4224   19.5933   19.2157 H   0  0  0  0  0  0  0  0  0  0  0  0
   21.2961   18.1602   20.2533 H   0  0  0  0  0  0  0  0  0  0  0  0
   21.4039   19.7874   20.9730 H   0  0  0  0  0  0  0  0  0  0  0  0
  1  2  1  0  0  0  0
  1  3  1  0  0  0  0
  1  4  1  0  0  0  0
  1  5  1  0  0  0  0
  5  6  1  0  0  0  0
  5  7  1  0  0  0  0
  5  8  1  0  0  0  0
  8  9  1  0  0  0  0
  8 10  1  0  0  0  0
  8 11  1  0  0  0  0
 11 12  1  0  0  0  0
 11 13  1  0  0  0  0
 11 14  1  0  0  0  0
 14 15  1  0  0  0  0
 14 16  1  0  0  0  0
 14 17  1  0  0  0  0
 17 18  1  0  0  0  0
 17 19  1  0  0  0  0
 17 20  1  0  0  0  0
 20 21  1  0  0  0  0
 20 22  1  0  0  0  0
 20 23  1  0  0  0  0
M  END
> <VM2 Rank>
56

> <Conf_Id>
486

> <Probability>
0.03

> <Sum Probability>
99.72

> <Delta G>
3.698

> <G>
41.614

> <E>
13.628

> <-TS>
27.986

> <U+W>
-5.151

> <U>
50.626

> <W>
-55.777

> <W(PB)>
-57.841

> <W(SA)>
2.064

> <Valence>
4.837

> <Coulomb>
45.097

> <VdW>
0.692

> <VdW6>
-6.655

> <VdW12>
7.347

> <Bond>
0.223

> <Angle>
1.167

> <Pdih>
3.447

> <Idih>
0.000

> <Tether>
0.000

$$$$
VeraChem MOL file


 23 22  0  0  0  0  0  0  0  0999 V2000     
   20.4427   19.1980   25.5748 N   0  3  0  0  0  0  0  0  0  0  0  0
   21.3968   18.9148   25.3296 H   0  0  0  0  0  0  0  0  0  0  0  0
   20.3611   19.1224   26.5944 H   0  0  0  0  0  0  0  0  0  0  0  0
   20.3514   20.1910   25.3400 H   0  0  0  0  0  0  0  0  0  0  0  0
   19.4034   18.3541   24.8630 C   0  0  0  0  0  0  0  0  0  0  0  0
   18.4145   18.6893   25.1872 H   0  0  0  0  0  0  0  0  0  0  0  0
   19.5359   17.3189   25.1891 H   0  0  0  0  0  0  0  0  0  0  0  0
   19.4958   18.4221   23.3263 C   0  0  0  0  0  0  0  0  0  0  0  0
   20.4910   18.0822   23.0139 H   0  0  0  0  0  0  0  0  0  0  0  0
   18.7677   17.7181   22.9020 H   0  0  0  0  0  0  0  0  0  0  0  0
   19.2200   19.8423   22.7764 C   0  0  0  0  0  0  0  0  0  0  0  0
   20.0204   20.5246   23.0927 H   0  0  0  0  0  0  0  0  0  0  0  0
   18.2941   20.2248   23.2279 H   0  0  0  0  0  0  0  0  0  0  0  0
   19.0727   19.9129   21.2343 C   0  0  0  0  0  0  0  0  0  0  0  0
   18.2105   19.3149   20.9085 H   0  0  0  0  0  0  0  0  0  0  0  0
   18.8264   20.9517   20.9740 H   0  0  0  0  0  0  0  0  0  0  0  0
   20.3401   19.5052   20.4393 C   0  0  0  0  0  0  0  0  0  0  0  0
   21.2450   19.7324   21.0199 H   0  0  0  0  0  0  0  0  0  0  0  0
   20.3988   20.1256   19.5340 H   0  0  0  0  0  0  0  0  0  0  0  0
   20.3413   18.0223   19.9999 C   0  0  0  0  0  0  0  0  0  0  0  0
   21.2446   17.7953   19.4190 H   0  0  0  0  0  0  0  0  0  0  0  0
   19.4736   17.8011   19.3649 H   0  0  0  0  0  0  0  0  0  0  0  0
   20.3169   17.3378   20.8547 H   0  0  0  0  0  0  0  0  0  0  0  0
  1  2  1  0  0  0  0
  1  3  1  0  0  0  0
  1  4  1  0  0  0  0
  1  5  1  0  0  0  0
  5  6  1  0  0  0  0
  5  7  1  0  0  0  0
  5  8  1  0  0  0  0
  8  9  1  0  0  0  0
  8 10  1  0  0  0  0
  8 11  1  0  0  0  0
 11 12  1  0  0  0  0
 11 13  1  0  0  0  0
 11 14  1  0  0  0  0
 14 15  1  0  0  0  0
 14 16  1  0  0  0  0
 14 17  1  0  0  0  0
 17 18  1  0  0  0  0
 17 19  1  0  0  0  0
 17 20  1  0  0  0  0
 20 21  1  0  0  0  0
 20 22  1  0  0  0  0
 20 23  1  0  0  0  0
M  END
> <VM2 Rank>
57

> <Conf_Id>
571

> <Probability>
0.03

> <Sum Probability>
99.75

> <Delta G>
3.707

> <G>
41.623

> <E>
13.669

> <-TS>
27.954

> <U+W>
-5.110

> <U>
50.700

> <W>
-55.810

> <W(PB)>
-57.884

> <W(SA)>
2.074

> <Valence>
4.817

> <Coulomb>
45.214

> <VdW>
0.668

> <VdW6>
-6.661

> <VdW12>
7.329

> <Bond>
0.218

> <Angle>
1.219

> <Pdih>
3.381

> <Idih>
0.000

> <Tether>
0.000

$$$$
VeraChem MOL file


 23 22  0  0  0  0  0  0  0  0999 V2000     
   20.0185   18.7465   25.7758 N   0  3  0  0  0  0  0  0  0  0  0  0
   20.7083   19.4879   25.6211 H   0  0  0  0  0  0  0  0  0  0  0  0
   20.5179   17.8528   25.7253 H   0  0  0  0  0  0  0  0  0  0  0  0
   19.6823   18.8469   26.7396 H   0  0  0  0  0  0  0  0  0  0  0  0
   18.8825   18.8151   24.7737 C   0  0  0  0  0  0  0  0  0  0  0  0
   18.3791   19.7780   24.8953 H   0  0  0  0  0  0  0  0  0  0  0  0
   18.1708   18.0247   25.0272 H   0  0  0  0  0  0  0  0  0  0  0  0
   19.3316   18.6454   23.3092 C   0  0  0  0  0  0  0  0  0  0  0  0
   19.8609   17.6902   23.1955 H   0  0  0  0  0  0  0  0  0  0  0  0
   18.4301   18.5882   22.6869 H   0  0  0  0  0  0  0  0  0  0  0  0
   20.2230   19.8118   22.8175 C   0  0  0  0  0  0  0  0  0  0  0  0
   21.0723   19.9361   23.5021 H   0  0  0  0  0  0  0  0  0  0  0  0
   19.6530   20.7500   22.8643 H   0  0  0  0  0  0  0  0  0  0  0  0
   20.7889   19.6244   21.3858 C   0  0  0  0  0  0  0  0  0  0  0  0
   21.4346   20.4871   21.1708 H   0  0  0  0  0  0  0  0  0  0  0  0
   21.4489   18.7466   21.3525 H   0  0  0  0  0  0  0  0  0  0  0  0
   19.7185   19.5335   20.2675 C   0  0  0  0  0  0  0  0  0  0  0  0
   20.1080   20.0321   19.3688 H   0  0  0  0  0  0  0  0  0  0  0  0
   18.8167   20.0917   20.5549 H   0  0  0  0  0  0  0  0  0  0  0  0
   19.3530   18.0802   19.8845 C   0  0  0  0  0  0  0  0  0  0  0  0
   20.2359   17.5367   19.5238 H   0  0  0  0  0  0  0  0  0  0  0  0
   18.6059   18.0715   19.0804 H   0  0  0  0  0  0  0  0  0  0  0  0
   18.9367   17.5223   20.7304 H   0  0  0  0  0  0  0  0  0  0  0  0
  1  2  1  0  0  0  0
  1  3  1  0  0  0  0
  1  4  1  0  0  0  0
  1  5  1  0  0  0  0
  5  6  1  0  0  0  0
  5  7  1  0  0  0  0
  5  8  1  0  0  0  0
  8  9  1  0  0  0  0
  8 10  1  0  0  0  0
  8 11  1  0  0  0  0
 11 12  1  0  0  0  0
 11 13  1  0  0  0  0
 11 14  1  0  0  0  0
 14 15  1  0  0  0  0
 14 16  1  0  0  0  0
 14 17  1  0  0  0  0
 17 18  1  0  0  0  0
 17 19  1  0  0  0  0
 17 20  1  0  0  0  0
 20 21  1  0  0  0  0
 20 22  1  0  0  0  0
 20 23  1  0  0  0  0
M  END
> <VM2 Rank>
58

> <Conf_Id>
399

> <Probability>
0.03

> <Sum Probability>
99.77

> <Delta G>
3.713

> <G>
41.629

> <E>
13.680

> <-TS>
27.949

> <U+W>
-5.099

> <U>
50.701

> <W>
-55.800

> <W(PB)>
-57.867

> <W(SA)>
2.067

> <Valence>
4.880

> <Coulomb>
45.095

> <VdW>
0.726

> <VdW6>
-6.620

> <VdW12>
7.345

> <Bond>
0.222

> <Angle>
1.260

> <Pdih>
3.398

> <Idih>
0.000

> <Tether>
0.000

$$$$
VeraChem MOL file


 23 22  0  0  0  0  0  0  0  0999 V2000     
   20.8278   18.8086   25.2418 N   0  3  0  0  0  0  0  0  0  0  0  0
   21.3637   18.0174   24.8713 H   0  0  0  0  0  0  0  0  0  0  0  0
   21.0147   18.8506   26.2494 H   0  0  0  0  0  0  0  0  0  0  0  0
   21.2196   19.6605   24.8291 H   0  0  0  0  0  0  0  0  0  0  0  0
   19.3461   18.6721   24.9501 C   0  0  0  0  0  0  0  0  0  0  0  0
   18.8321   19.5293   25.3934 H   0  0  0  0  0  0  0  0  0  0  0  0
   18.9919   17.7666   25.4504 H   0  0  0  0  0  0  0  0  0  0  0  0
   19.0148   18.5885   23.4476 C   0  0  0  0  0  0  0  0  0  0  0  0
   19.5350   17.7288   23.0108 H   0  0  0  0  0  0  0  0  0  0  0  0
   17.9409   18.3851   23.3424 H   0  0  0  0  0  0  0  0  0  0  0  0
   19.3620   19.8943   22.6876 C   0  0  0  0  0  0  0  0  0  0  0  0
   20.4280   20.1358   22.7919 H   0  0  0  0  0  0  0  0  0  0  0  0
   18.8152   20.7202   23.1635 H   0  0  0  0  0  0  0  0  0  0  0  0
   18.9782   19.8544   21.1852 C   0  0  0  0  0  0  0  0  0  0  0  0
   18.1040   19.2070   21.0311 H   0  0  0  0  0  0  0  0  0  0  0  0
   18.6553   20.8619   20.8882 H   0  0  0  0  0  0  0  0  0  0  0  0
   20.1266   19.4343   20.2324 C   0  0  0  0  0  0  0  0  0  0  0  0
   20.9554   20.1511   20.3156 H   0  0  0  0  0  0  0  0  0  0  0  0
   19.7643   19.5078   19.1974 H   0  0  0  0  0  0  0  0  0  0  0  0
   20.6605   18.0047   20.4691 C   0  0  0  0  0  0  0  0  0  0  0  0
   21.3708   17.7255   19.6802 H   0  0  0  0  0  0  0  0  0  0  0  0
   19.8448   17.2704   20.4617 H   0  0  0  0  0  0  0  0  0  0  0  0
   21.1904   17.9309   21.4265 H   0  0  0  0  0  0  0  0  0  0  0  0
  1  2  1  0  0  0  0
  1  3  1  0  0  0  0
  1  4  1  0  0  0  0
  1  5  1  0  0  0  0
  5  6  1  0  0  0  0
  5  7  1  0  0  0  0
  5  8  1  0  0  0  0
  8  9  1  0  0  0  0
  8 10  1  0  0  0  0
  8 11  1  0  0  0  0
 11 12  1  0  0  0  0
 11 13  1  0  0  0  0
 11 14  1  0  0  0  0
 14 15  1  0  0  0  0
 14 16  1  0  0  0  0
 14 17  1  0  0  0  0
 17 18  1  0  0  0  0
 17 19  1  0  0  0  0
 17 20  1  0  0  0  0
 20 21  1  0  0  0  0
 20 22  1  0  0  0  0
 20 23  1  0  0  0  0
M  END
> <VM2 Rank>
59

> <Conf_Id>
511

> <Probability>
0.02

> <Sum Probability>
99.80

> <Delta G>
3.762

> <G>
41.678

> <E>
13.724

> <-TS>
27.953

> <U+W>
-5.055

> <U>
50.975

> <W>
-56.030

> <W(PB)>
-58.076

> <W(SA)>
2.047

> <Valence>
4.792

> <Coulomb>
45.573

> <VdW>
0.610

> <VdW6>
-6.731

> <VdW12>
7.341

> <Bond>
0.224

> <Angle>
1.226

> <Pdih>
3.342

> <Idih>
0.000

> <Tether>
0.000

$$$$
VeraChem MOL file


 23 22  0  0  0  0  0  0  0  0999 V2000     
   18.9664   18.0340   25.1569 N   0  3  0  0  0  0  0  0  0  0  0  0
   19.1793   17.1085   24.7716 H   0  0  0  0  0  0  0  0  0  0  0  0
   18.1203   18.3708   24.6877 H   0  0  0  0  0  0  0  0  0  0  0  0
   18.7273   17.8987   26.1451 H   0  0  0  0  0  0  0  0  0  0  0  0
   20.1256   18.9964   24.9856 C   0  0  0  0  0  0  0  0  0  0  0  0
   20.9765   18.5924   25.5408 H   0  0  0  0  0  0  0  0  0  0  0  0
   19.8448   19.9506   25.4396 H   0  0  0  0  0  0  0  0  0  0  0  0
   20.5338   19.2206   23.5169 C   0  0  0  0  0  0  0  0  0  0  0  0
   21.4397   19.8410   23.5019 H   0  0  0  0  0  0  0  0  0  0  0  0
   20.8114   18.2599   23.0690 H   0  0  0  0  0  0  0  0  0  0  0  0
   19.4245   19.9203   22.6905 C   0  0  0  0  0  0  0  0  0  0  0  0
   19.1865   20.8748   23.1803 H   0  0  0  0  0  0  0  0  0  0  0  0
   18.4972   19.3325   22.7039 H   0  0  0  0  0  0  0  0  0  0  0  0
   19.8386   20.2125   21.2244 C   0  0  0  0  0  0  0  0  0  0  0  0
   19.3749   21.1613   20.9209 H   0  0  0  0  0  0  0  0  0  0  0  0
   20.9225   20.3797   21.1595 H   0  0  0  0  0  0  0  0  0  0  0  0
   19.4040   19.1336   20.1995 C   0  0  0  0  0  0  0  0  0  0  0  0
   19.6865   19.4753   19.1939 H   0  0  0  0  0  0  0  0  0  0  0  0
   18.3083   19.0497   20.1949 H   0  0  0  0  0  0  0  0  0  0  0  0
   20.0231   17.7395   20.4402 C   0  0  0  0  0  0  0  0  0  0  0  0
   19.7836   17.0650   19.6080 H   0  0  0  0  0  0  0  0  0  0  0  0
   19.6293   17.2813   21.3555 H   0  0  0  0  0  0  0  0  0  0  0  0
   21.1163   17.7994   20.5197 H   0  0  0  0  0  0  0  0  0  0  0  0
  1  2  1  0  0  0  0
  1  3  1  0  0  0  0
  1  4  1  0  0  0  0
  1  5  1  0  0  0  0
  5  6  1  0  0  0  0
  5  7  1  0  0  0  0
  5  8  1  0  0  0  0
  8  9  1  0  0  0  0
  8 10  1  0  0  0  0
  8 11  1  0  0  0  0
 11 12  1  0  0  0  0
 11 13  1  0  0  0  0
 11 14  1  0  0  0  0
 14 15  1  0  0  0  0
 14 16  1  0  0  0  0
 14 17  1  0  0  0  0
 17 18  1  0  0  0  0
 17 19  1  0  0  0  0
 17 20  1  0  0  0  0
 20 21  1  0  0  0  0
 20 22  1  0  0  0  0
 20 23  1  0  0  0  0
M  END
> <VM2 Rank>
60

> <Conf_Id>
313

> <Probability>
0.02

> <Sum Probability>
99.82

> <Delta G>
3.796

> <G>
41.713

> <E>
13.759

> <-TS>
27.953

> <U+W>
-5.020

> <U>
50.975

> <W>
-55.995

> <W(PB)>
-58.046

> <W(SA)>
2.051

> <Valence>
4.792

> <Coulomb>
45.573

> <VdW>
0.610

> <VdW6>
-6.731

> <VdW12>
7.341

> <Bond>
0.224

> <Angle>
1.227

> <Pdih>
3.342

> <Idih>
0.000

> <Tether>
0.000

$$$$
VeraChem MOL file


 23 22  0  0  0  0  0  0  0  0999 V2000     
   19.5368   18.5463   25.7539 N   0  3  0  0  0  0  0  0  0  0  0  0
   19.8229   17.5639   25.6939 H   0  0  0  0  0  0  0  0  0  0  0  0
   18.5397   18.5861   25.5224 H   0  0  0  0  0  0  0  0  0  0  0  0
   19.6270   18.8242   26.7371 H   0  0  0  0  0  0  0  0  0  0  0  0
   20.3635   19.4312   24.8412 C   0  0  0  0  0  0  0  0  0  0  0  0
   21.4030   19.3692   25.1745 H   0  0  0  0  0  0  0  0  0  0  0  0
   20.0257   20.4630   24.9702 H   0  0  0  0  0  0  0  0  0  0  0  0
   20.2819   19.0406   23.3525 C   0  0  0  0  0  0  0  0  0  0  0  0
   21.0035   19.6585   22.8041 H   0  0  0  0  0  0  0  0  0  0  0  0
   20.5955   17.9956   23.2291 H   0  0  0  0  0  0  0  0  0  0  0  0
   18.8685   19.2481   22.7558 C   0  0  0  0  0  0  0  0  0  0  0  0
   18.6006   20.3121   22.8165 H   0  0  0  0  0  0  0  0  0  0  0  0
   18.1313   18.7124   23.3680 H   0  0  0  0  0  0  0  0  0  0  0  0
   18.7151   18.7617   21.2913 C   0  0  0  0  0  0  0  0  0  0  0  0
   18.8759   17.6763   21.2351 H   0  0  0  0  0  0  0  0  0  0  0  0
   17.6677   18.9201   20.9991 H   0  0  0  0  0  0  0  0  0  0  0  0
   19.6175   19.4916   20.2630 C   0  0  0  0  0  0  0  0  0  0  0  0
   19.8332   20.5146   20.6015 H   0  0  0  0  0  0  0  0  0  0  0  0
   19.0607   19.5969   19.3212 H   0  0  0  0  0  0  0  0  0  0  0  0
   20.9326   18.7374   19.9564 C   0  0  0  0  0  0  0  0  0  0  0  0
   21.5542   18.6109   20.8495 H   0  0  0  0  0  0  0  0  0  0  0  0
   21.5257   19.2864   19.2135 H   0  0  0  0  0  0  0  0  0  0  0  0
   20.7256   17.7407   19.5457 H   0  0  0  0  0  0  0  0  0  0  0  0
  1  2  1  0  0  0  0
  1  3  1  0  0  0  0
  1  4  1  0  0  0  0
  1  5  1  0  0  0  0
  5  6  1  0  0  0  0
  5  7  1  0  0  0  0
  5  8  1  0  0  0  0
  8  9  1  0  0  0  0
  8 10  1  0  0  0  0
  8 11  1  0  0  0  0
 11 12  1  0  0  0  0
 11 13  1  0  0  0  0
 11 14  1  0  0  0  0
 14 15  1  0  0  0  0
 14 16  1  0  0  0  0
 14 17  1  0  0  0  0
 17 18  1  0  0  0  0
 17 19  1  0  0  0  0
 17 20  1  0  0  0  0
 20 21  1  0  0  0  0
 20 22  1  0  0  0  0
 20 23  1  0  0  0  0
M  END
> <VM2 Rank>
61

> <Conf_Id>
412

> <Probability>
0.02

> <Sum Probability>
99.84

> <Delta G>
3.803

> <G>
41.719

> <E>
13.770

> <-TS>
27.949

> <U+W>
-5.009

> <U>
50.701

> <W>
-55.709

> <W(PB)>
-57.768

> <W(SA)>
2.058

> <Valence>
4.881

> <Coulomb>
45.095

> <VdW>
0.726

> <VdW6>
-6.620

> <VdW12>
7.345

> <Bond>
0.222

> <Angle>
1.260

> <Pdih>
3.398

> <Idih>
0.000

> <Tether>
0.000

$$$$
VeraChem MOL file


 23 22  0  0  0  0  0  0  0  0999 V2000     
   20.9898   18.9143   24.7566 N   0  3  0  0  0  0  0  0  0  0  0  0
   21.7215   18.2398   25.0046 H   0  0  0  0  0  0  0  0  0  0  0  0
   20.8629   19.5288   25.5671 H   0  0  0  0  0  0  0  0  0  0  0  0
   21.3550   19.4912   23.9932 H   0  0  0  0  0  0  0  0  0  0  0  0
   19.6965   18.2254   24.3671 C   0  0  0  0  0  0  0  0  0  0  0  0
   19.3790   17.6135   25.2158 H   0  0  0  0  0  0  0  0  0  0  0  0
   19.9003   17.5549   23.5294 H   0  0  0  0  0  0  0  0  0  0  0  0
   18.5643   19.2011   23.9930 C   0  0  0  0  0  0  0  0  0  0  0  0
   17.6583   18.6204   23.7745 H   0  0  0  0  0  0  0  0  0  0  0  0
   18.3248   19.8124   24.8731 H   0  0  0  0  0  0  0  0  0  0  0  0
   18.8688   20.1417   22.7963 C   0  0  0  0  0  0  0  0  0  0  0  0
   19.7353   20.7800   23.0141 H   0  0  0  0  0  0  0  0  0  0  0  0
   18.0177   20.8301   22.7005 H   0  0  0  0  0  0  0  0  0  0  0  0
   19.0528   19.4260   21.4322 C   0  0  0  0  0  0  0  0  0  0  0  0
   18.3717   18.5667   21.3625 H   0  0  0  0  0  0  0  0  0  0  0  0
   18.7439   20.1212   20.6391 H   0  0  0  0  0  0  0  0  0  0  0  0
   20.5068   18.9835   21.1385 C   0  0  0  0  0  0  0  0  0  0  0  0
   20.8475   18.2496   21.8772 H   0  0  0  0  0  0  0  0  0  0  0  0
   21.1800   19.8486   21.2157 H   0  0  0  0  0  0  0  0  0  0  0  0
   20.6370   18.3650   19.7303 C   0  0  0  0  0  0  0  0  0  0  0  0
   21.6729   18.0580   19.5360 H   0  0  0  0  0  0  0  0  0  0  0  0
   20.3483   19.0852   18.9537 H   0  0  0  0  0  0  0  0  0  0  0  0
   19.9981   17.4781   19.6285 H   0  0  0  0  0  0  0  0  0  0  0  0
  1  2  1  0  0  0  0
  1  3  1  0  0  0  0
  1  4  1  0  0  0  0
  1  5  1  0  0  0  0
  5  6  1  0  0  0  0
  5  7  1  0  0  0  0
  5  8  1  0  0  0  0
  8  9  1  0  0  0  0
  8 10  1  0  0  0  0
  8 11  1  0  0  0  0
 11 12  1  0  0  0  0
 11 13  1  0  0  0  0
 11 14  1  0  0  0  0
 14 15  1  0  0  0  0
 14 16  1  0  0  0  0
 14 17  1  0  0  0  0
 17 18  1  0  0  0  0
 17 19  1  0  0  0  0
 17 20  1  0  0  0  0
 20 21  1  0  0  0  0
 20 22  1  0  0  0  0
 20 23  1  0  0  0  0
M  END
> <VM2 Rank>
62

> <Conf_Id>
564

> <Probability>
0.02

> <Sum Probability>
99.86

> <Delta G>
3.858

> <G>
41.774

> <E>
13.754

> <-TS>
28.020

> <U+W>
-5.025

> <U>
51.112

> <W>
-56.136

> <W(PB)>
-58.231

> <W(SA)>
2.094

> <Valence>
4.455

> <Coulomb>
46.320

> <VdW>
0.337

> <VdW6>
-7.022

> <VdW12>
7.359

> <Bond>
0.222

> <Angle>
1.454

> <Pdih>
2.779

> <Idih>
0.000

> <Tether>
0.000

$$$$
VeraChem MOL file


 23 22  0  0  0  0  0  0  0  0999 V2000     
   20.3026   18.1969   25.6540 N   0  3  0  0  0  0  0  0  0  0  0  0
   20.7191   17.3382   25.2799 H   0  0  0  0  0  0  0  0  0  0  0  0
   19.4498   17.9256   26.1540 H   0  0  0  0  0  0  0  0  0  0  0  0
   20.9550   18.5638   26.3552 H   0  0  0  0  0  0  0  0  0  0  0  0
   20.0202   19.2102   24.5635 C   0  0  0  0  0  0  0  0  0  0  0  0
   20.9728   19.4748   24.0980 H   0  0  0  0  0  0  0  0  0  0  0  0
   19.6072   20.1062   25.0346 H   0  0  0  0  0  0  0  0  0  0  0  0
   19.0407   18.6892   23.4944 C   0  0  0  0  0  0  0  0  0  0  0  0
   19.4510   17.7841   23.0333 H   0  0  0  0  0  0  0  0  0  0  0  0
   18.1064   18.3896   23.9874 H   0  0  0  0  0  0  0  0  0  0  0  0
   18.7135   19.7533   22.4160 C   0  0  0  0  0  0  0  0  0  0  0  0
   18.3313   20.6483   22.9265 H   0  0  0  0  0  0  0  0  0  0  0  0
   17.8874   19.3985   21.7846 H   0  0  0  0  0  0  0  0  0  0  0  0
   19.9137   20.1669   21.5207 C   0  0  0  0  0  0  0  0  0  0  0  0
   19.7925   21.2276   21.2606 H   0  0  0  0  0  0  0  0  0  0  0  0
   20.8576   20.1085   22.0775 H   0  0  0  0  0  0  0  0  0  0  0  0
   20.0360   19.3766   20.1928 C   0  0  0  0  0  0  0  0  0  0  0  0
   20.8632   19.8043   19.6091 H   0  0  0  0  0  0  0  0  0  0  0  0
   19.1298   19.5256   19.5892 H   0  0  0  0  0  0  0  0  0  0  0  0
   20.2894   17.8640   20.3725 C   0  0  0  0  0  0  0  0  0  0  0  0
   21.1434   17.6808   21.0374 H   0  0  0  0  0  0  0  0  0  0  0  0
   20.5103   17.3949   19.4050 H   0  0  0  0  0  0  0  0  0  0  0  0
   19.4079   17.3590   20.7859 H   0  0  0  0  0  0  0  0  0  0  0  0
  1  2  1  0  0  0  0
  1  3  1  0  0  0  0
  1  4  1  0  0  0  0
  1  5  1  0  0  0  0
  5  6  1  0  0  0  0
  5  7  1  0  0  0  0
  5  8  1  0  0  0  0
  8  9  1  0  0  0  0
  8 10  1  0  0  0  0
  8 11  1  0  0  0  0
 11 12  1  0  0  0  0
 11 13  1  0  0  0  0
 11 14  1  0  0  0  0
 14 15  1  0  0  0  0
 14 16  1  0  0  0  0
 14 17  1  0  0  0  0
 17 18  1  0  0  0  0
 17 19  1  0  0  0  0
 17 20  1  0  0  0  0
 20 21  1  0  0  0  0
 20 22  1  0  0  0  0
 20 23  1  0  0  0  0
M  END
> <VM2 Rank>
63

> <Conf_Id>
682

> <Probability>
0.02

> <Sum Probability>
99.88

> <Delta G>
3.870

> <G>
41.786

> <E>
13.891

> <-TS>
27.895

> <U+W>
-4.888

> <U>
51.036

> <W>
-55.924

> <W(PB)>
-57.987

> <W(SA)>
2.063

> <Valence>
5.117

> <Coulomb>
45.321

> <VdW>
0.598

> <VdW6>
-6.707

> <VdW12>
7.304

> <Bond>
0.233

> <Angle>
1.409

> <Pdih>
3.475

> <Idih>
0.000

> <Tether>
0.000

$$$$
VeraChem MOL file


 23 22  0  0  0  0  0  0  0  0999 V2000     
   19.7363   17.9611   25.6281 N   0  3  0  0  0  0  0  0  0  0  0  0
   20.0809   17.0726   25.2506 H   0  0  0  0  0  0  0  0  0  0  0  0
   18.9643   17.7353   26.2645 H   0  0  0  0  0  0  0  0  0  0  0  0
   20.4881   18.3574   26.2012 H   0  0  0  0  0  0  0  0  0  0  0  0
   19.3014   18.9112   24.5307 C   0  0  0  0  0  0  0  0  0  0  0  0
   18.9204   19.8205   25.0035 H   0  0  0  0  0  0  0  0  0  0  0  0
   18.4815   18.4384   23.9845 H   0  0  0  0  0  0  0  0  0  0  0  0
   20.4407   19.2718   23.5582 C   0  0  0  0  0  0  0  0  0  0  0  0
   21.2704   19.7061   24.1315 H   0  0  0  0  0  0  0  0  0  0  0  0
   20.8294   18.3577   23.0961 H   0  0  0  0  0  0  0  0  0  0  0  0
   20.0004   20.2889   22.4747 C   0  0  0  0  0  0  0  0  0  0  0  0
   20.8805   20.6440   21.9210 H   0  0  0  0  0  0  0  0  0  0  0  0
   19.5953   21.1743   22.9841 H   0  0  0  0  0  0  0  0  0  0  0  0
   18.9347   19.7596   21.4761 C   0  0  0  0  0  0  0  0  0  0  0  0
   18.2704   19.0320   21.9595 H   0  0  0  0  0  0  0  0  0  0  0  0
   18.2889   20.6019   21.1920 H   0  0  0  0  0  0  0  0  0  0  0  0
   19.5115   19.1583   20.1689 C   0  0  0  0  0  0  0  0  0  0  0  0
   20.0888   19.9246   19.6329 H   0  0  0  0  0  0  0  0  0  0  0  0
   18.6734   18.8930   19.5093 H   0  0  0  0  0  0  0  0  0  0  0  0
   20.3909   17.9062   20.3772 C   0  0  0  0  0  0  0  0  0  0  0  0
   19.8697   17.1508   20.9795 H   0  0  0  0  0  0  0  0  0  0  0  0
   21.3350   18.1609   20.8738 H   0  0  0  0  0  0  0  0  0  0  0  0
   20.6431   17.4501   19.4112 H   0  0  0  0  0  0  0  0  0  0  0  0
  1  2  1  0  0  0  0
  1  3  1  0  0  0  0
  1  4  1  0  0  0  0
  1  5  1  0  0  0  0
  5  6  1  0  0  0  0
  5  7  1  0  0  0  0
  5  8  1  0  0  0  0
  8  9  1  0  0  0  0
  8 10  1  0  0  0  0
  8 11  1  0  0  0  0
 11 12  1  0  0  0  0
 11 13  1  0  0  0  0
 11 14  1  0  0  0  0
 14 15  1  0  0  0  0
 14 16  1  0  0  0  0
 14 17  1  0  0  0  0
 17 18  1  0  0  0  0
 17 19  1  0  0  0  0
 17 20  1  0  0  0  0
 20 21  1  0  0  0  0
 20 22  1  0  0  0  0
 20 23  1  0  0  0  0
M  END
> <VM2 Rank>
64

> <Conf_Id>
183

> <Probability>
0.02

> <Sum Probability>
99.90

> <Delta G>
3.878

> <G>
41.794

> <E>
13.899

> <-TS>
27.895

> <U+W>
-4.880

> <U>
51.036

> <W>
-55.916

> <W(PB)>
-57.975

> <W(SA)>
2.059

> <Valence>
5.117

> <Coulomb>
45.321

> <VdW>
0.598

> <VdW6>
-6.707

> <VdW12>
7.305

> <Bond>
0.233

> <Angle>
1.409

> <Pdih>
3.475

> <Idih>
0.000

> <Tether>
0.000

$$$$
VeraChem MOL file


 23 22  0  0  0  0  0  0  0  0999 V2000     
   18.8165   18.0087   24.6574 N   0  3  0  0  0  0  0  0  0  0  0  0
   18.4069   18.5054   25.4551 H   0  0  0  0  0  0  0  0  0  0  0  0
   18.7622   17.0068   24.8695 H   0  0  0  0  0  0  0  0  0  0  0  0
   18.2108   18.1811   23.8497 H   0  0  0  0  0  0  0  0  0  0  0  0
   20.2418   18.4526   24.3920 C   0  0  0  0  0  0  0  0  0  0  0  0
   20.6392   17.8627   23.5632 H   0  0  0  0  0  0  0  0  0  0  0  0
   20.8322   18.2191   25.2821 H   0  0  0  0  0  0  0  0  0  0  0  0
   20.3731   19.9547   24.0754 C   0  0  0  0  0  0  0  0  0  0  0  0
   20.0394   20.5269   24.9513 H   0  0  0  0  0  0  0  0  0  0  0  0
   21.4368   20.1947   23.9467 H   0  0  0  0  0  0  0  0  0  0  0  0
   19.5856   20.4404   22.8290 C   0  0  0  0  0  0  0  0  0  0  0  0
   19.7018   21.5319   22.7772 H   0  0  0  0  0  0  0  0  0  0  0  0
   18.5087   20.2690   22.9582 H   0  0  0  0  0  0  0  0  0  0  0  0
   20.0695   19.8497   21.4785 C   0  0  0  0  0  0  0  0  0  0  0  0
   19.8547   20.5841   20.6897 H   0  0  0  0  0  0  0  0  0  0  0  0
   21.1616   19.7295   21.4895 H   0  0  0  0  0  0  0  0  0  0  0  0
   19.3867   18.5167   21.0875 C   0  0  0  0  0  0  0  0  0  0  0  0
   18.2955   18.6463   21.0845 H   0  0  0  0  0  0  0  0  0  0  0  0
   19.6111   17.7342   21.8209 H   0  0  0  0  0  0  0  0  0  0  0  0
   19.8428   18.0341   19.6941 C   0  0  0  0  0  0  0  0  0  0  0  0
   19.3494   17.0897   19.4302 H   0  0  0  0  0  0  0  0  0  0  0  0
   20.9274   17.8656   19.6706 H   0  0  0  0  0  0  0  0  0  0  0  0
   19.5945   18.7713   18.9194 H   0  0  0  0  0  0  0  0  0  0  0  0
  1  2  1  0  0  0  0
  1  3  1  0  0  0  0
  1  4  1  0  0  0  0
  1  5  1  0  0  0  0
  5  6  1  0  0  0  0
  5  7  1  0  0  0  0
  5  8  1  0  0  0  0
  8  9  1  0  0  0  0
  8 10  1  0  0  0  0
  8 11  1  0  0  0  0
 11 12  1  0  0  0  0
 11 13  1  0  0  0  0
 11 14  1  0  0  0  0
 14 15  1  0  0  0  0
 14 16  1  0  0  0  0
 14 17  1  0  0  0  0
 17 18  1  0  0  0  0
 17 19  1  0  0  0  0
 17 20  1  0  0  0  0
 20 21  1  0  0  0  0
 20 22  1  0  0  0  0
 20 23  1  0  0  0  0
M  END
> <VM2 Rank>
65

> <Conf_Id>
560

> <Probability>
0.02

> <Sum Probability>
99.92

> <Delta G>
3.925

> <G>
41.841

> <E>
13.822

> <-TS>
28.020

> <U+W>
-4.958

> <U>
51.112

> <W>
-56.069

> <W(PB)>
-58.128

> <W(SA)>
2.058

> <Valence>
4.455

> <Coulomb>
46.320

> <VdW>
0.337

> <VdW6>
-7.022

> <VdW12>
7.359

> <Bond>
0.222

> <Angle>
1.455

> <Pdih>
2.778

> <Idih>
0.000

> <Tether>
0.000

$$$$
VeraChem MOL file


 23 22  0  0  0  0  0  0  0  0999 V2000     
   20.0561   17.7786   25.2512 N   0  3  0  0  0  0  0  0  0  0  0  0
   19.4582   17.0310   25.6196 H   0  0  0  0  0  0  0  0  0  0  0  0
   20.3400   18.3535   26.0510 H   0  0  0  0  0  0  0  0  0  0  0  0
   20.9027   17.3310   24.8860 H   0  0  0  0  0  0  0  0  0  0  0  0
   19.3458   18.5968   24.1922 C   0  0  0  0  0  0  0  0  0  0  0  0
   18.4430   19.0199   24.6410 H   0  0  0  0  0  0  0  0  0  0  0  0
   19.0448   17.9190   23.3892 H   0  0  0  0  0  0  0  0  0  0  0  0
   20.2176   19.7290   23.6175 C   0  0  0  0  0  0  0  0  0  0  0  0
   20.5326   20.3878   24.4376 H   0  0  0  0  0  0  0  0  0  0  0  0
   21.1388   19.3176   23.1877 H   0  0  0  0  0  0  0  0  0  0  0  0
   19.4734   20.5763   22.5580 C   0  0  0  0  0  0  0  0  0  0  0  0
   20.1439   21.3713   22.2039 H   0  0  0  0  0  0  0  0  0  0  0  0
   18.6346   21.0900   23.0480 H   0  0  0  0  0  0  0  0  0  0  0  0
   18.9230   19.7949   21.3342 C   0  0  0  0  0  0  0  0  0  0  0  0
   18.1749   19.0551   21.6492 H   0  0  0  0  0  0  0  0  0  0  0  0
   18.3734   20.5143   20.7114 H   0  0  0  0  0  0  0  0  0  0  0  0
   20.0026   19.1265   20.4437 C   0  0  0  0  0  0  0  0  0  0  0  0
   20.9292   19.7170   20.4584 H   0  0  0  0  0  0  0  0  0  0  0  0
   19.6509   19.1439   19.4025 H   0  0  0  0  0  0  0  0  0  0  0  0
   20.2976   17.6550   20.8172 C   0  0  0  0  0  0  0  0  0  0  0  0
   20.7325   17.5612   21.8175 H   0  0  0  0  0  0  0  0  0  0  0  0
   21.0108   17.2166   20.1073 H   0  0  0  0  0  0  0  0  0  0  0  0
   19.3825   17.0496   20.7849 H   0  0  0  0  0  0  0  0  0  0  0  0
  1  2  1  0  0  0  0
  1  3  1  0  0  0  0
  1  4  1  0  0  0  0
  1  5  1  0  0  0  0
  5  6  1  0  0  0  0
  5  7  1  0  0  0  0
  5  8  1  0  0  0  0
  8  9  1  0  0  0  0
  8 10  1  0  0  0  0
  8 11  1  0  0  0  0
 11 12  1  0  0  0  0
 11 13  1  0  0  0  0
 11 14  1  0  0  0  0
 14 15  1  0  0  0  0
 14 16  1  0  0  0  0
 14 17  1  0  0  0  0
 17 18  1  0  0  0  0
 17 19  1  0  0  0  0
 17 20  1  0  0  0  0
 20 21  1  0  0  0  0
 20 22  1  0  0  0  0
 20 23  1  0  0  0  0
M  END
> <VM2 Rank>
66

> <Conf_Id>
186

> <Probability>
0.02

> <Sum Probability>
99.93

> <Delta G>
3.977

> <G>
41.894

> <E>
13.665

> <-TS>
28.229

> <U+W>
-5.114

> <U>
51.053

> <W>
-56.167

> <W(PB)>
-58.204

> <W(SA)>
2.037

> <Valence>
5.021

> <Coulomb>
45.788

> <VdW>
0.245

> <VdW6>
-7.353

> <VdW12>
7.597

> <Bond>
0.229

> <Angle>
1.631

> <Pdih>
3.161

> <Idih>
0.000

> <Tether>
0.000

$$$$
VeraChem MOL file


 23 22  0  0  0  0  0  0  0  0999 V2000     
   20.2368   17.8538   25.2595 N   0  3  0  0  0  0  0  0  0  0  0  0
   19.5685   18.0326   26.0160 H   0  0  0  0  0  0  0  0  0  0  0  0
   21.1572   17.7380   25.6969 H   0  0  0  0  0  0  0  0  0  0  0  0
   19.9877   16.9504   24.8445 H   0  0  0  0  0  0  0  0  0  0  0  0
   20.2380   18.9680   24.2328 C   0  0  0  0  0  0  0  0  0  0  0  0
   20.9914   18.7289   23.4779 H   0  0  0  0  0  0  0  0  0  0  0  0
   20.5371   19.8913   24.7362 H   0  0  0  0  0  0  0  0  0  0  0  0
   18.8689   19.1677   23.5560 C   0  0  0  0  0  0  0  0  0  0  0  0
   18.5471   18.2390   23.0695 H   0  0  0  0  0  0  0  0  0  0  0  0
   18.1177   19.3828   24.3276 H   0  0  0  0  0  0  0  0  0  0  0  0
   18.8733   20.3265   22.5307 C   0  0  0  0  0  0  0  0  0  0  0  0
   19.0600   21.2670   23.0674 H   0  0  0  0  0  0  0  0  0  0  0  0
   17.8671   20.4237   22.1001 H   0  0  0  0  0  0  0  0  0  0  0  0
   19.9078   20.2047   21.3791 C   0  0  0  0  0  0  0  0  0  0  0  0
   19.8323   21.1214   20.7779 H   0  0  0  0  0  0  0  0  0  0  0  0
   20.9322   20.2026   21.7749 H   0  0  0  0  0  0  0  0  0  0  0  0
   19.6926   18.9975   20.4295 C   0  0  0  0  0  0  0  0  0  0  0  0
   20.0079   19.2925   19.4188 H   0  0  0  0  0  0  0  0  0  0  0  0
   18.6230   18.7573   20.3532 H   0  0  0  0  0  0  0  0  0  0  0  0
   20.4987   17.7387   20.8264 C   0  0  0  0  0  0  0  0  0  0  0  0
   20.1824   17.3323   21.7924 H   0  0  0  0  0  0  0  0  0  0  0  0
   21.5721   17.9608   20.8846 H   0  0  0  0  0  0  0  0  0  0  0  0
   20.3637   16.9473   20.0778 H   0  0  0  0  0  0  0  0  0  0  0  0
  1  2  1  0  0  0  0
  1  3  1  0  0  0  0
  1  4  1  0  0  0  0
  1  5  1  0  0  0  0
  5  6  1  0  0  0  0
  5  7  1  0  0  0  0
  5  8  1  0  0  0  0
  8  9  1  0  0  0  0
  8 10  1  0  0  0  0
  8 11  1  0  0  0  0
 11 12  1  0  0  0  0
 11 13  1  0  0  0  0
 11 14  1  0  0  0  0
 14 15  1  0  0  0  0
 14 16  1  0  0  0  0
 14 17  1  0  0  0  0
 17 18  1  0  0  0  0
 17 19  1  0  0  0  0
 17 20  1  0  0  0  0
 20 21  1  0  0  0  0
 20 22  1  0  0  0  0
 20 23  1  0  0  0  0
M  END
> <VM2 Rank>
67

> <Conf_Id>
755

> <Probability>
0.01

> <Sum Probability>
99.95

> <Delta G>
4.049

> <G>
41.965

> <E>
13.736

> <-TS>
28.229

> <U+W>
-5.043

> <U>
51.053

> <W>
-56.096

> <W(PB)>
-58.131

> <W(SA)>
2.034

> <Valence>
5.021

> <Coulomb>
45.787

> <VdW>
0.245

> <VdW6>
-7.353

> <VdW12>
7.598

> <Bond>
0.229

> <Angle>
1.631

> <Pdih>
3.161

> <Idih>
0.000

> <Tether>
0.000

$$$$
VeraChem MOL file


 23 22  0  0  0  0  0  0  0  0999 V2000     
   20.3752   18.5204   25.2079 N   0  3  0  0  0  0  0  0  0  0  0  0
   19.8644   18.9661   25.9767 H   0  0  0  0  0  0  0  0  0  0  0  0
   21.0907   19.1833   24.8951 H   0  0  0  0  0  0  0  0  0  0  0  0
   20.8657   17.7114   25.6037 H   0  0  0  0  0  0  0  0  0  0  0  0
   19.4504   18.1205   24.0752 C   0  0  0  0  0  0  0  0  0  0  0  0
   18.7350   17.3939   24.4698 H   0  0  0  0  0  0  0  0  0  0  0  0
   20.0503   17.6250   23.3076 H   0  0  0  0  0  0  0  0  0  0  0  0
   18.6862   19.3068   23.4533 C   0  0  0  0  0  0  0  0  0  0  0  0
   17.9791   18.9308   22.7039 H   0  0  0  0  0  0  0  0  0  0  0  0
   18.0703   19.7804   24.2291 H   0  0  0  0  0  0  0  0  0  0  0  0
   19.6036   20.3778   22.8109 C   0  0  0  0  0  0  0  0  0  0  0  0
   20.1801   20.8732   23.6037 H   0  0  0  0  0  0  0  0  0  0  0  0
   18.9745   21.1643   22.3719 H   0  0  0  0  0  0  0  0  0  0  0  0
   20.5928   19.8609   21.7312 C   0  0  0  0  0  0  0  0  0  0  0  0
   21.2217   20.7120   21.4353 H   0  0  0  0  0  0  0  0  0  0  0  0
   21.2860   19.1236   22.1574 H   0  0  0  0  0  0  0  0  0  0  0  0
   19.9279   19.2983   20.4480 C   0  0  0  0  0  0  0  0  0  0  0  0
   20.5903   19.5078   19.5964 H   0  0  0  0  0  0  0  0  0  0  0  0
   18.9902   19.8316   20.2383 H   0  0  0  0  0  0  0  0  0  0  0  0
   19.6799   17.7724   20.4874 C   0  0  0  0  0  0  0  0  0  0  0  0
   20.6119   17.2268   20.6841 H   0  0  0  0  0  0  0  0  0  0  0  0
   19.2891   17.4244   19.5225 H   0  0  0  0  0  0  0  0  0  0  0  0
   18.9516   17.4912   21.2548 H   0  0  0  0  0  0  0  0  0  0  0  0
  1  2  1  0  0  0  0
  1  3  1  0  0  0  0
  1  4  1  0  0  0  0
  1  5  1  0  0  0  0
  5  6  1  0  0  0  0
  5  7  1  0  0  0  0
  5  8  1  0  0  0  0
  8  9  1  0  0  0  0
  8 10  1  0  0  0  0
  8 11  1  0  0  0  0
 11 12  1  0  0  0  0
 11 13  1  0  0  0  0
 11 14  1  0  0  0  0
 14 15  1  0  0  0  0
 14 16  1  0  0  0  0
 14 17  1  0  0  0  0
 17 18  1  0  0  0  0
 17 19  1  0  0  0  0
 17 20  1  0  0  0  0
 20 21  1  0  0  0  0
 20 22  1  0  0  0  0
 20 23  1  0  0  0  0
M  END
> <VM2 Rank>
68

> <Conf_Id>
553

> <Probability>
0.01

> <Sum Probability>
99.96

> <Delta G>
4.279

> <G>
42.195

> <E>
13.813

> <-TS>
28.381

> <U+W>
-4.966

> <U>
51.195

> <W>
-56.160

> <W(PB)>
-58.178

> <W(SA)>
2.018

> <Valence>
5.115

> <Coulomb>
45.778

> <VdW>
0.302

> <VdW6>
-7.949

> <VdW12>
8.251

> <Bond>
0.252

> <Angle>
1.729

> <Pdih>
3.134

> <Idih>
0.000

> <Tether>
0.000

$$$$
VeraChem MOL file


 23 22  0  0  0  0  0  0  0  0999 V2000     
   19.4908   18.1523   25.1674 N   0  3  0  0  0  0  0  0  0  0  0  0
   19.6887   17.2215   25.5498 H   0  0  0  0  0  0  0  0  0  0  0  0
   18.5435   18.1231   24.7785 H   0  0  0  0  0  0  0  0  0  0  0  0
   19.4736   18.8035   25.9586 H   0  0  0  0  0  0  0  0  0  0  0  0
   20.5109   18.5618   24.1235 C   0  0  0  0  0  0  0  0  0  0  0  0
   20.5006   17.8123   23.3280 H   0  0  0  0  0  0  0  0  0  0  0  0
   21.4968   18.5432   24.5958 H   0  0  0  0  0  0  0  0  0  0  0  0
   20.2554   19.9598   23.5248 C   0  0  0  0  0  0  0  0  0  0  0  0
   20.2920   20.7050   24.3304 H   0  0  0  0  0  0  0  0  0  0  0  0
   21.0760   20.2196   22.8451 H   0  0  0  0  0  0  0  0  0  0  0  0
   18.9030   20.0863   22.7790 C   0  0  0  0  0  0  0  0  0  0  0  0
   18.8216   21.1007   22.3648 H   0  0  0  0  0  0  0  0  0  0  0  0
   18.0861   20.0020   23.5083 H   0  0  0  0  0  0  0  0  0  0  0  0
   18.6584   19.0560   21.6432 C   0  0  0  0  0  0  0  0  0  0  0  0
   18.6610   18.0313   22.0380 H   0  0  0  0  0  0  0  0  0  0  0  0
   17.6373   19.2204   21.2721 H   0  0  0  0  0  0  0  0  0  0  0  0
   19.6230   19.1714   20.4342 C   0  0  0  0  0  0  0  0  0  0  0  0
   19.9195   20.2182   20.2806 H   0  0  0  0  0  0  0  0  0  0  0  0
   19.0758   18.8773   19.5275 H   0  0  0  0  0  0  0  0  0  0  0  0
   20.8746   18.2695   20.5420 C   0  0  0  0  0  0  0  0  0  0  0  0
   21.5254   18.5624   21.3720 H   0  0  0  0  0  0  0  0  0  0  0  0
   21.4700   18.3318   19.6219 H   0  0  0  0  0  0  0  0  0  0  0  0
   20.5917   17.2184   20.6836 H   0  0  0  0  0  0  0  0  0  0  0  0
  1  2  1  0  0  0  0
  1  3  1  0  0  0  0
  1  4  1  0  0  0  0
  1  5  1  0  0  0  0
  5  6  1  0  0  0  0
  5  7  1  0  0  0  0
  5  8  1  0  0  0  0
  8  9  1  0  0  0  0
  8 10  1  0  0  0  0
  8 11  1  0  0  0  0
 11 12  1  0  0  0  0
 11 13  1  0  0  0  0
 11 14  1  0  0  0  0
 14 15  1  0  0  0  0
 14 16  1  0  0  0  0
 14 17  1  0  0  0  0
 17 18  1  0  0  0  0
 17 19  1  0  0  0  0
 17 20  1  0  0  0  0
 20 21  1  0  0  0  0
 20 22  1  0  0  0  0
 20 23  1  0  0  0  0
M  END
> <VM2 Rank>
69

> <Conf_Id>
488

> <Probability>
0.01

> <Sum Probability>
99.97

> <Delta G>
4.288

> <G>
42.204

> <E>
13.823

> <-TS>
28.381

> <U+W>
-4.956

> <U>
51.195

> <W>
-56.152

> <W(PB)>
-58.166

> <W(SA)>
2.015

> <Valence>
5.115

> <Coulomb>
45.778

> <VdW>
0.302

> <VdW6>
-7.950

> <VdW12>
8.252

> <Bond>
0.252

> <Angle>
1.729

> <Pdih>
3.133

> <Idih>
0.000

> <Tether>
0.000

$$$$
VeraChem MOL file


 23 22  0  0  0  0  0  0  0  0999 V2000     
   20.1348   17.6277   24.2542 N   0  3  0  0  0  0  0  0  0  0  0  0
   19.3082   17.0324   24.1407 H   0  0  0  0  0  0  0  0  0  0  0  0
   20.7769   17.1301   24.8805 H   0  0  0  0  0  0  0  0  0  0  0  0
   20.5898   17.6931   23.3390 H   0  0  0  0  0  0  0  0  0  0  0  0
   19.7694   18.9960   24.7955 C   0  0  0  0  0  0  0  0  0  0  0  0
   20.6914   19.5519   24.9853 H   0  0  0  0  0  0  0  0  0  0  0  0
   19.2668   18.8369   25.7534 H   0  0  0  0  0  0  0  0  0  0  0  0
   18.8463   19.8181   23.8719 C   0  0  0  0  0  0  0  0  0  0  0  0
   18.0464   19.1826   23.4713 H   0  0  0  0  0  0  0  0  0  0  0  0
   18.3415   20.5706   24.4921 H   0  0  0  0  0  0  0  0  0  0  0  0
   19.5845   20.5682   22.7305 C   0  0  0  0  0  0  0  0  0  0  0  0
   20.2987   21.2738   23.1772 H   0  0  0  0  0  0  0  0  0  0  0  0
   18.8548   21.1864   22.1896 H   0  0  0  0  0  0  0  0  0  0  0  0
   20.3401   19.6832   21.7066 C   0  0  0  0  0  0  0  0  0  0  0  0
   20.8242   20.3443   20.9745 H   0  0  0  0  0  0  0  0  0  0  0  0
   21.1583   19.1466   22.2023 H   0  0  0  0  0  0  0  0  0  0  0  0
   19.4252   18.6926   20.9477 C   0  0  0  0  0  0  0  0  0  0  0  0
   18.6238   19.2475   20.4400 H   0  0  0  0  0  0  0  0  0  0  0  0
   18.9347   18.0048   21.6480 H   0  0  0  0  0  0  0  0  0  0  0  0
   20.2158   17.8711   19.9075 C   0  0  0  0  0  0  0  0  0  0  0  0
   20.6842   18.5258   19.1610 H   0  0  0  0  0  0  0  0  0  0  0  0
   19.5518   17.1770   19.3762 H   0  0  0  0  0  0  0  0  0  0  0  0
   21.0066   17.2798   20.3872 H   0  0  0  0  0  0  0  0  0  0  0  0
  1  2  1  0  0  0  0
  1  3  1  0  0  0  0
  1  4  1  0  0  0  0
  1  5  1  0  0  0  0
  5  6  1  0  0  0  0
  5  7  1  0  0  0  0
  5  8  1  0  0  0  0
  8  9  1  0  0  0  0
  8 10  1  0  0  0  0
  8 11  1  0  0  0  0
 11 12  1  0  0  0  0
 11 13  1  0  0  0  0
 11 14  1  0  0  0  0
 14 15  1  0  0  0  0
 14 16  1  0  0  0  0
 14 17  1  0  0  0  0
 17 18  1  0  0  0  0
 17 19  1  0  0  0  0
 17 20  1  0  0  0  0
 20 21  1  0  0  0  0
 20 22  1  0  0  0  0
 20 23  1  0  0  0  0
M  END
> <VM2 Rank>
70

> <Conf_Id>
719

> <Probability>
0.01

> <Sum Probability>
99.98

> <Delta G>
4.458

> <G>
42.374

> <E>
14.098

> <-TS>
28.276

> <U+W>
-4.681

> <U>
50.876

> <W>
-55.558

> <W(PB)>
-57.617

> <W(SA)>
2.059

> <Valence>
3.812

> <Coulomb>
46.852

> <VdW>
0.213

> <VdW6>
-7.416

> <VdW12>
7.629

> <Bond>
0.215

> <Angle>
1.470

> <Pdih>
2.127

> <Idih>
0.000

> <Tether>
0.000

$$$$
VeraChem MOL file


 23 22  0  0  0  0  0  0  0  0999 V2000     
   20.3659   17.7239   24.2647 N   0  3  0  0  0  0  0  0  0  0  0  0
   20.0712   17.4772   23.3153 H   0  0  0  0  0  0  0  0  0  0  0  0
   20.2192   16.8979   24.8550 H   0  0  0  0  0  0  0  0  0  0  0  0
   21.3763   17.8932   24.2349 H   0  0  0  0  0  0  0  0  0  0  0  0
   19.6111   18.9301   24.7883 C   0  0  0  0  0  0  0  0  0  0  0  0
   20.0021   19.1428   25.7870 H   0  0  0  0  0  0  0  0  0  0  0  0
   18.5556   18.6629   24.8878 H   0  0  0  0  0  0  0  0  0  0  0  0
   19.7482   20.1935   23.9130 C   0  0  0  0  0  0  0  0  0  0  0  0
   19.5214   21.0616   24.5460 H   0  0  0  0  0  0  0  0  0  0  0  0
   20.7907   20.3248   23.5965 H   0  0  0  0  0  0  0  0  0  0  0  0
   18.7876   20.2366   22.6942 C   0  0  0  0  0  0  0  0  0  0  0  0
   18.9039   21.2069   22.1918 H   0  0  0  0  0  0  0  0  0  0  0  0
   17.7521   20.2141   23.0611 H   0  0  0  0  0  0  0  0  0  0  0  0
   18.9636   19.1104   21.6439 C   0  0  0  0  0  0  0  0  0  0  0  0
   18.7310   18.1365   22.0917 H   0  0  0  0  0  0  0  0  0  0  0  0
   18.2124   19.2574   20.8554 H   0  0  0  0  0  0  0  0  0  0  0  0
   20.3660   19.0842   20.9906 C   0  0  0  0  0  0  0  0  0  0  0  0
   21.1430   18.9239   21.7486 H   0  0  0  0  0  0  0  0  0  0  0  0
   20.5747   20.0594   20.5288 H   0  0  0  0  0  0  0  0  0  0  0  0
   20.4737   17.9783   19.9194 C   0  0  0  0  0  0  0  0  0  0  0  0
   21.4724   17.9762   19.4639 H   0  0  0  0  0  0  0  0  0  0  0  0
   19.7393   18.1323   19.1180 H   0  0  0  0  0  0  0  0  0  0  0  0
   20.3003   16.9859   20.3552 H   0  0  0  0  0  0  0  0  0  0  0  0
  1  2  1  0  0  0  0
  1  3  1  0  0  0  0
  1  4  1  0  0  0  0
  1  5  1  0  0  0  0
  5  6  1  0  0  0  0
  5  7  1  0  0  0  0
  5  8  1  0  0  0  0
  8  9  1  0  0  0  0
  8 10  1  0  0  0  0
  8 11  1  0  0  0  0
 11 12  1  0  0  0  0
 11 13  1  0  0  0  0
 11 14  1  0  0  0  0
 14 15  1  0  0  0  0
 14 16  1  0  0  0  0
 14 17  1  0  0  0  0
 17 18  1  0  0  0  0
 17 19  1  0  0  0  0
 17 20  1  0  0  0  0
 20 21  1  0  0  0  0
 20 22  1  0  0  0  0
 20 23  1  0  0  0  0
M  END
> <VM2 Rank>
71

> <Conf_Id>
495

> <Probability>
0.01

> <Sum Probability>
99.98

> <Delta G>
4.547

> <G>
42.463

> <E>
14.187

> <-TS>
28.276

> <U+W>
-4.592

> <U>
50.877

> <W>
-55.469

> <W(PB)>
-57.490

> <W(SA)>
2.022

> <Valence>
3.812

> <Coulomb>
46.852

> <VdW>
0.213

> <VdW6>
-7.416

> <VdW12>
7.628

> <Bond>
0.215

> <Angle>
1.471

> <Pdih>
2.127

> <Idih>
0.000

> <Tether>
0.000

$$$$
VeraChem MOL file


 23 22  0  0  0  0  0  0  0  0999 V2000     
   19.4994   17.6996   24.7626 N   0  3  0  0  0  0  0  0  0  0  0  0
   19.9791   17.9063   25.6446 H   0  0  0  0  0  0  0  0  0  0  0  0
   20.1851   17.2599   24.1419 H   0  0  0  0  0  0  0  0  0  0  0  0
   18.7842   16.9947   24.9705 H   0  0  0  0  0  0  0  0  0  0  0  0
   18.8975   18.9472   24.1453 C   0  0  0  0  0  0  0  0  0  0  0  0
   18.1655   19.3431   24.8546 H   0  0  0  0  0  0  0  0  0  0  0  0
   18.3650   18.6532   23.2389 H   0  0  0  0  0  0  0  0  0  0  0  0
   19.9369   20.0411   23.8248 C   0  0  0  0  0  0  0  0  0  0  0  0
   19.4166   20.9710   23.5601 H   0  0  0  0  0  0  0  0  0  0  0  0
   20.4957   20.2617   24.7440 H   0  0  0  0  0  0  0  0  0  0  0  0
   20.9399   19.6672   22.7005 C   0  0  0  0  0  0  0  0  0  0  0  0
   21.2419   18.6154   22.7787 H   0  0  0  0  0  0  0  0  0  0  0  0
   21.8598   20.2442   22.8686 H   0  0  0  0  0  0  0  0  0  0  0  0
   20.4537   19.9897   21.2615 C   0  0  0  0  0  0  0  0  0  0  0  0
   20.2576   21.0682   21.1867 H   0  0  0  0  0  0  0  0  0  0  0  0
   21.2777   19.7898   20.5626 H   0  0  0  0  0  0  0  0  0  0  0  0
   19.1992   19.2229   20.7750 C   0  0  0  0  0  0  0  0  0  0  0  0
   18.9567   19.5646   19.7591 H   0  0  0  0  0  0  0  0  0  0  0  0
   18.3292   19.4866   21.3896 H   0  0  0  0  0  0  0  0  0  0  0  0
   19.3894   17.6893   20.7442 C   0  0  0  0  0  0  0  0  0  0  0  0
   20.2502   17.4127   20.1218 H   0  0  0  0  0  0  0  0  0  0  0  0
   18.5012   17.2002   20.3240 H   0  0  0  0  0  0  0  0  0  0  0  0
   19.5485   17.2795   21.7480 H   0  0  0  0  0  0  0  0  0  0  0  0
  1  2  1  0  0  0  0
  1  3  1  0  0  0  0
  1  4  1  0  0  0  0
  1  5  1  0  0  0  0
  5  6  1  0  0  0  0
  5  7  1  0  0  0  0
  5  8  1  0  0  0  0
  8  9  1  0  0  0  0
  8 10  1  0  0  0  0
  8 11  1  0  0  0  0
 11 12  1  0  0  0  0
 11 13  1  0  0  0  0
 11 14  1  0  0  0  0
 14 15  1  0  0  0  0
 14 16  1  0  0  0  0
 14 17  1  0  0  0  0
 17 18  1  0  0  0  0
 17 19  1  0  0  0  0
 17 20  1  0  0  0  0
 20 21  1  0  0  0  0
 20 22  1  0  0  0  0
 20 23  1  0  0  0  0
M  END
> <VM2 Rank>
72

> <Conf_Id>
295

> <Probability>
0.01

> <Sum Probability>
99.99

> <Delta G>
4.550

> <G>
42.466

> <E>
13.890

> <-TS>
28.576

> <U+W>
-4.889

> <U>
51.403

> <W>
-56.291

> <W(PB)>
-58.317

> <W(SA)>
2.025

> <Valence>
4.890

> <Coulomb>
46.339

> <VdW>
0.173

> <VdW6>
-8.061

> <VdW12>
8.235

> <Bond>
0.255

> <Angle>
1.788

> <Pdih>
2.848

> <Idih>
0.000

> <Tether>
0.000

$$$$
VeraChem MOL file


 23 22  0  0  0  0  0  0  0  0999 V2000     
   19.3640   17.7796   24.5919 N   0  3  0  0  0  0  0  0  0  0  0  0
   18.8669   17.4284   25.4176 H   0  0  0  0  0  0  0  0  0  0  0  0
   20.1339   17.1285   24.4081 H   0  0  0  0  0  0  0  0  0  0  0  0
   18.7183   17.7191   23.7998 H   0  0  0  0  0  0  0  0  0  0  0  0
   19.8645   19.1954   24.7981 C   0  0  0  0  0  0  0  0  0  0  0  0
   20.5518   19.1705   25.6481 H   0  0  0  0  0  0  0  0  0  0  0  0
   19.0143   19.8269   25.0693 H   0  0  0  0  0  0  0  0  0  0  0  0
   20.5934   19.7989   23.5793 C   0  0  0  0  0  0  0  0  0  0  0  0
   21.2082   20.6328   23.9431 H   0  0  0  0  0  0  0  0  0  0  0  0
   21.3008   19.0725   23.1597 H   0  0  0  0  0  0  0  0  0  0  0  0
   19.6499   20.3559   22.4798 C   0  0  0  0  0  0  0  0  0  0  0  0
   20.2549   20.8972   21.7404 H   0  0  0  0  0  0  0  0  0  0  0  0
   18.9935   21.1138   22.9291 H   0  0  0  0  0  0  0  0  0  0  0  0
   18.7684   19.3129   21.7421 C   0  0  0  0  0  0  0  0  0  0  0  0
   18.0317   18.8942   22.4386 H   0  0  0  0  0  0  0  0  0  0  0  0
   18.1760   19.8388   20.9806 H   0  0  0  0  0  0  0  0  0  0  0  0
   19.5445   18.1613   21.0528 C   0  0  0  0  0  0  0  0  0  0  0  0
   18.8195   17.4800   20.5859 H   0  0  0  0  0  0  0  0  0  0  0  0
   20.0862   17.5626   21.7960 H   0  0  0  0  0  0  0  0  0  0  0  0
   20.5313   18.6531   19.9700 C   0  0  0  0  0  0  0  0  0  0  0  0
   20.0185   19.2664   19.2178 H   0  0  0  0  0  0  0  0  0  0  0  0
   20.9903   17.8010   19.4522 H   0  0  0  0  0  0  0  0  0  0  0  0
   21.3417   19.2502   20.4062 H   0  0  0  0  0  0  0  0  0  0  0  0
  1  2  1  0  0  0  0
  1  3  1  0  0  0  0
  1  4  1  0  0  0  0
  1  5  1  0  0  0  0
  5  6  1  0  0  0  0
  5  7  1  0  0  0  0
  5  8  1  0  0  0  0
  8  9  1  0  0  0  0
  8 10  1  0  0  0  0
  8 11  1  0  0  0  0
 11 12  1  0  0  0  0
 11 13  1  0  0  0  0
 11 14  1  0  0  0  0
 14 15  1  0  0  0  0
 14 16  1  0  0  0  0
 14 17  1  0  0  0  0
 17 18  1  0  0  0  0
 17 19  1  0  0  0  0
 17 20  1  0  0  0  0
 20 21  1  0  0  0  0
 20 22  1  0  0  0  0
 20 23  1  0  0  0  0
M  END
> <VM2 Rank>
73

> <Conf_Id>
572

> <Probability>
0.01

> <Sum Probability>
99.99

> <Delta G>
4.664

> <G>
42.580

> <E>
14.117

> <-TS>
28.463

> <U+W>
-4.662

> <U>
51.396

> <W>
-56.058

> <W(PB)>
-58.085

> <W(SA)>
2.026

> <Valence>
4.231

> <Coulomb>
46.940

> <VdW>
0.225

> <VdW6>
-8.093

> <VdW12>
8.318

> <Bond>
0.258

> <Angle>
1.778

> <Pdih>
2.195

> <Idih>
0.000

> <Tether>
0.000

$$$$
VeraChem MOL file


 23 22  0  0  0  0  0  0  0  0999 V2000     
   20.7732   18.3663   24.6561 N   0  3  0  0  0  0  0  0  0  0  0  0
   21.3304   18.8069   23.9189 H   0  0  0  0  0  0  0  0  0  0  0  0
   20.7087   17.3679   24.4340 H   0  0  0  0  0  0  0  0  0  0  0  0
   21.3066   18.4441   25.5287 H   0  0  0  0  0  0  0  0  0  0  0  0
   19.4030   19.0031   24.7771 C   0  0  0  0  0  0  0  0  0  0  0  0
   19.5308   20.0419   25.0930 H   0  0  0  0  0  0  0  0  0  0  0  0
   18.8726   18.4711   25.5715 H   0  0  0  0  0  0  0  0  0  0  0  0
   18.5586   18.9517   23.4865 C   0  0  0  0  0  0  0  0  0  0  0  0
   18.6096   17.9520   23.0370 H   0  0  0  0  0  0  0  0  0  0  0  0
   17.5084   19.0924   23.7744 H   0  0  0  0  0  0  0  0  0  0  0  0
   18.9113   20.0484   22.4462 C   0  0  0  0  0  0  0  0  0  0  0  0
   18.7999   21.0332   22.9203 H   0  0  0  0  0  0  0  0  0  0  0  0
   18.1606   20.0254   21.6450 H   0  0  0  0  0  0  0  0  0  0  0  0
   20.3257   19.9614   21.8130 C   0  0  0  0  0  0  0  0  0  0  0  0
   20.4277   20.7763   21.0832 H   0  0  0  0  0  0  0  0  0  0  0  0
   21.0850   20.1655   22.5777 H   0  0  0  0  0  0  0  0  0  0  0  0
   20.6505   18.6218   21.1032 C   0  0  0  0  0  0  0  0  0  0  0  0
   20.6370   17.7920   21.8211 H   0  0  0  0  0  0  0  0  0  0  0  0
   21.6780   18.6701   20.7162 H   0  0  0  0  0  0  0  0  0  0  0  0
   19.6939   18.3043   19.9319 C   0  0  0  0  0  0  0  0  0  0  0  0
   18.6685   18.1371   20.2845 H   0  0  0  0  0  0  0  0  0  0  0  0
   20.0157   17.3951   19.4079 H   0  0  0  0  0  0  0  0  0  0  0  0
   19.6774   19.1243   19.2023 H   0  0  0  0  0  0  0  0  0  0  0  0
  1  2  1  0  0  0  0
  1  3  1  0  0  0  0
  1  4  1  0  0  0  0
  1  5  1  0  0  0  0
  5  6  1  0  0  0  0
  5  7  1  0  0  0  0
  5  8  1  0  0  0  0
  8  9  1  0  0  0  0
  8 10  1  0  0  0  0
  8 11  1  0  0  0  0
 11 12  1  0  0  0  0
 11 13  1  0  0  0  0
 11 14  1  0  0  0  0
 14 15  1  0  0  0  0
 14 16  1  0  0  0  0
 14 17  1  0  0  0  0
 17 18  1  0  0  0  0
 17 19  1  0  0  0  0
 17 20  1  0  0  0  0
 20 21  1  0  0  0  0
 20 22  1  0  0  0  0
 20 23  1  0  0  0  0
M  END
> <VM2 Rank>
74

> <Conf_Id>
569

> <Probability>
0.00

> <Sum Probability>
100.00

> <Delta G>
4.719

> <G>
42.635

> <E>
14.172

> <-TS>
28.463

> <U+W>
-4.607

> <U>
51.396

> <W>
-56.004

> <W(PB)>
-58.024

> <W(SA)>
2.020

> <Valence>
4.231

> <Coulomb>
46.940

> <VdW>
0.225

> <VdW6>
-8.093

> <VdW12>
8.318

> <Bond>
0.258

> <Angle>
1.779

> <Pdih>
2.194

> <Idih>
0.000

> <Tether>
0.000

$$$$
VeraChem MOL file


 23 22  0  0  0  0  0  0  0  0999 V2000     
   20.8537   18.5096   25.2445 N   0  3  0  0  0  0  0  0  0  0  0  0
   21.0981   17.5653   24.9297 H   0  0  0  0  0  0  0  0  0  0  0  0
   20.2348   18.4062   26.0551 H   0  0  0  0  0  0  0  0  0  0  0  0
   21.7183   18.9444   25.5840 H   0  0  0  0  0  0  0  0  0  0  0  0
   20.2086   19.3249   24.1424 C   0  0  0  0  0  0  0  0  0  0  0  0
   20.9333   19.4249   23.3319 H   0  0  0  0  0  0  0  0  0  0  0  0
   20.0014   20.3225   24.5391 H   0  0  0  0  0  0  0  0  0  0  0  0
   18.9035   18.6990   23.6135 C   0  0  0  0  0  0  0  0  0  0  0  0
   19.0811   17.6746   23.2610 H   0  0  0  0  0  0  0  0  0  0  0  0
   18.2008   18.6186   24.4536 H   0  0  0  0  0  0  0  0  0  0  0  0
   18.2393   19.5396   22.4951 C   0  0  0  0  0  0  0  0  0  0  0  0
   18.3429   20.6102   22.7199 H   0  0  0  0  0  0  0  0  0  0  0  0
   17.1594   19.3375   22.5175 H   0  0  0  0  0  0  0  0  0  0  0  0
   18.7346   19.2497   21.0522 C   0  0  0  0  0  0  0  0  0  0  0  0
   18.5239   18.2048   20.7855 H   0  0  0  0  0  0  0  0  0  0  0  0
   18.1212   19.8540   20.3695 H   0  0  0  0  0  0  0  0  0  0  0  0
   20.2226   19.5818   20.7737 C   0  0  0  0  0  0  0  0  0  0  0  0
   20.5642   20.3943   21.4290 H   0  0  0  0  0  0  0  0  0  0  0  0
   20.3083   19.9704   19.7491 H   0  0  0  0  0  0  0  0  0  0  0  0
   21.1537   18.3525   20.8926 C   0  0  0  0  0  0  0  0  0  0  0  0
   21.1027   17.8889   21.8836 H   0  0  0  0  0  0  0  0  0  0  0  0
   22.1971   18.6403   20.7100 H   0  0  0  0  0  0  0  0  0  0  0  0
   20.8854   17.5877   20.1522 H   0  0  0  0  0  0  0  0  0  0  0  0
  1  2  1  0  0  0  0
  1  3  1  0  0  0  0
  1  4  1  0  0  0  0
  1  5  1  0  0  0  0
  5  6  1  0  0  0  0
  5  7  1  0  0  0  0
  5  8  1  0  0  0  0
  8  9  1  0  0  0  0
  8 10  1  0  0  0  0
  8 11  1  0  0  0  0
 11 12  1  0  0  0  0
 11 13  1  0  0  0  0
 11 14  1  0  0  0  0
 14 15  1  0  0  0  0
 14 16  1  0  0  0  0
 14 17  1  0  0  0  0
 17 18  1  0  0  0  0
 17 19  1  0  0  0  0
 17 20  1  0  0  0  0
 20 21  1  0  0  0  0
 20 22  1  0  0  0  0
 20 23  1  0  0  0  0
M  END
> <VM2 Rank>
75

> <Conf_Id>
672

> <Probability>
0.00

> <Sum Probability>
100.00

> <Delta G>
5.841

> <G>
43.757

> <E>
15.364

> <-TS>
28.393

> <U+W>
-3.416

> <U>
52.784

> <W>
-56.200

> <W(PB)>
-58.238

> <W(SA)>
2.038

> <Valence>
6.630

> <Coulomb>
45.869

> <VdW>
0.285

> <VdW6>
-7.559

> <VdW12>
7.845

> <Bond>
0.231

> <Angle>
1.767

> <Pdih>
4.632

> <Idih>
0.000

> <Tether>
0.000

$$$$
VeraChem MOL file


 23 22  0  0  0  0  0  0  0  0999 V2000     
   20.4661   19.6208   25.1046 N   0  3  0  0  0  0  0  0  0  0  0  0
   19.9044   19.3644   25.9228 H   0  0  0  0  0  0  0  0  0  0  0  0
   20.0813   20.4954   24.7357 H   0  0  0  0  0  0  0  0  0  0  0  0
   21.4112   19.8281   25.4445 H   0  0  0  0  0  0  0  0  0  0  0  0
   20.4719   18.5223   24.0594 C   0  0  0  0  0  0  0  0  0  0  0  0
   20.9272   17.6383   24.5142 H   0  0  0  0  0  0  0  0  0  0  0  0
   21.1107   18.8452   23.2352 H   0  0  0  0  0  0  0  0  0  0  0  0
   19.0679   18.1564   23.5337 C   0  0  0  0  0  0  0  0  0  0  0  0
   19.1325   17.2602   22.9029 H   0  0  0  0  0  0  0  0  0  0  0  0
   18.4459   17.8729   24.3931 H   0  0  0  0  0  0  0  0  0  0  0  0
   18.3576   19.2933   22.7526 C   0  0  0  0  0  0  0  0  0  0  0  0
   18.5257   20.2610   23.2427 H   0  0  0  0  0  0  0  0  0  0  0  0
   17.2749   19.1184   22.8199 H   0  0  0  0  0  0  0  0  0  0  0  0
   18.7132   19.3968   21.2447 C   0  0  0  0  0  0  0  0  0  0  0  0
   18.4270   18.4708   20.7271 H   0  0  0  0  0  0  0  0  0  0  0  0
   18.0760   20.1807   20.8123 H   0  0  0  0  0  0  0  0  0  0  0  0
   20.1873   19.7528   20.9261 C   0  0  0  0  0  0  0  0  0  0  0  0
   20.6309   20.3280   21.7499 H   0  0  0  0  0  0  0  0  0  0  0  0
   20.2058   20.4210   20.0537 H   0  0  0  0  0  0  0  0  0  0  0  0
   21.0521   18.5146   20.5929 C   0  0  0  0  0  0  0  0  0  0  0  0
   20.6815   18.0128   19.6896 H   0  0  0  0  0  0  0  0  0  0  0  0
   21.0523   17.7798   21.4053 H   0  0  0  0  0  0  0  0  0  0  0  0
   22.0926   18.8100   20.4060 H   0  0  0  0  0  0  0  0  0  0  0  0
  1  2  1  0  0  0  0
  1  3  1  0  0  0  0
  1  4  1  0  0  0  0
  1  5  1  0  0  0  0
  5  6  1  0  0  0  0
  5  7  1  0  0  0  0
  5  8  1  0  0  0  0
  8  9  1  0  0  0  0
  8 10  1  0  0  0  0
  8 11  1  0  0  0  0
 11 12  1  0  0  0  0
 11 13  1  0  0  0  0
 11 14  1  0  0  0  0
 14 15  1  0  0  0  0
 14 16  1  0  0  0  0
 14 17  1  0  0  0  0
 17 18  1  0  0  0  0
 17 19  1  0  0  0  0
 17 20  1  0  0  0  0
 20 21  1  0  0  0  0
 20 22  1  0  0  0  0
 20 23  1  0  0  0  0
M  END
> <VM2 Rank>
76

> <Conf_Id>
362

> <Probability>
0.00

> <Sum Probability>
100.00

> <Delta G>
6.253

> <G>
44.169

> <E>
15.699

> <-TS>
28.471

> <U+W>
-3.080

> <U>
53.200

> <W>
-56.281

> <W(PB)>
-58.316

> <W(SA)>
2.035

> <Valence>
6.810

> <Coulomb>
46.000

> <VdW>
0.390

> <VdW6>
-8.050

> <VdW12>
8.440

> <Bond>
0.260

> <Angle>
1.891

> <Pdih>
4.659

> <Idih>
0.000

> <Tether>
0.000

$$$$
VeraChem MOL file


 23 22  0  0  0  0  0  0  0  0999 V2000     
   20.6911   18.5197   24.9675 N   0  3  0  0  0  0  0  0  0  0  0  0
   20.9967   18.4774   25.9456 H   0  0  0  0  0  0  0  0  0  0  0  0
   21.2349   19.2600   24.5137 H   0  0  0  0  0  0  0  0  0  0  0  0
   20.9579   17.6316   24.5312 H   0  0  0  0  0  0  0  0  0  0  0  0
   19.2023   18.7769   24.8546 C   0  0  0  0  0  0  0  0  0  0  0  0
   18.9842   19.7168   25.3688 H   0  0  0  0  0  0  0  0  0  0  0  0
   18.6884   17.9730   25.3887 H   0  0  0  0  0  0  0  0  0  0  0  0
   18.6694   18.8467   23.4078 C   0  0  0  0  0  0  0  0  0  0  0  0
   18.8593   17.8965   22.8946 H   0  0  0  0  0  0  0  0  0  0  0  0
   17.5774   18.9467   23.4650 H   0  0  0  0  0  0  0  0  0  0  0  0
   19.2269   20.0450   22.5934 C   0  0  0  0  0  0  0  0  0  0  0  0
   19.3710   20.8973   23.2718 H   0  0  0  0  0  0  0  0  0  0  0  0
   18.4689   20.3763   21.8704 H   0  0  0  0  0  0  0  0  0  0  0  0
   20.5534   19.7583   21.8378 C   0  0  0  0  0  0  0  0  0  0  0  0
   21.1547   20.6781   21.8384 H   0  0  0  0  0  0  0  0  0  0  0  0
   21.1539   19.0082   22.3658 H   0  0  0  0  0  0  0  0  0  0  0  0
   20.3648   19.3230   20.3623 C   0  0  0  0  0  0  0  0  0  0  0  0
   21.3551   19.2298   19.8949 H   0  0  0  0  0  0  0  0  0  0  0  0
   19.8404   20.1140   19.8082 H   0  0  0  0  0  0  0  0  0  0  0  0
   19.6080   17.9874   20.1908 C   0  0  0  0  0  0  0  0  0  0  0  0
   18.5672   18.0718   20.5274 H   0  0  0  0  0  0  0  0  0  0  0  0
   20.0933   17.1821   20.7571 H   0  0  0  0  0  0  0  0  0  0  0  0
   19.5890   17.6900   19.1344 H   0  0  0  0  0  0  0  0  0  0  0  0
  1  2  1  0  0  0  0
  1  3  1  0  0  0  0
  1  4  1  0  0  0  0
  1  5  1  0  0  0  0
  5  6  1  0  0  0  0
  5  7  1  0  0  0  0
  5  8  1  0  0  0  0
  8  9  1  0  0  0  0
  8 10  1  0  0  0  0
  8 11  1  0  0  0  0
 11 12  1  0  0  0  0
 11 13  1  0  0  0  0
 11 14  1  0  0  0  0
 14 15  1  0  0  0  0
 14 16  1  0  0  0  0
 14 17  1  0  0  0  0
 17 18  1  0  0  0  0
 17 19  1  0  0  0  0
 17 20  1  0  0  0  0
 20 21  1  0  0  0  0
 20 22  1  0  0  0  0
 20 23  1  0  0  0  0
M  END
> <VM2 Rank>
77

> <Conf_Id>
574

> <Probability>
0.00

> <Sum Probability>
100.00

> <Delta G>
6.275

> <G>
44.191

> <E>
16.072

> <-TS>
28.119

> <U+W>
-2.707

> <U>
53.344

> <W>
-56.051

> <W(PB)>
-58.096

> <W(SA)>
2.045

> <Valence>
6.531

> <Coulomb>
46.150

> <VdW>
0.663

> <VdW6>
-7.490

> <VdW12>
8.153

> <Bond>
0.263

> <Angle>
1.395

> <Pdih>
4.874

> <Idih>
0.000

> <Tether>
0.000

$$$$
VeraChem MOL file


 23 22  0  0  0  0  0  0  0  0999 V2000     
   19.2881   17.9361   24.9036 N   0  3  0  0  0  0  0  0  0  0  0  0
   18.4174   18.0879   24.3855 H   0  0  0  0  0  0  0  0  0  0  0  0
   19.0278   17.6583   25.8560 H   0  0  0  0  0  0  0  0  0  0  0  0
   19.7634   17.1347   24.4768 H   0  0  0  0  0  0  0  0  0  0  0  0
   20.1598   19.1752   24.8983 C   0  0  0  0  0  0  0  0  0  0  0  0
   21.0483   18.9548   25.4962 H   0  0  0  0  0  0  0  0  0  0  0  0
   19.6076   19.9761   25.3972 H   0  0  0  0  0  0  0  0  0  0  0  0
   20.5965   19.6484   23.4955 C   0  0  0  0  0  0  0  0  0  0  0  0
   21.2877   20.4904   23.6340 H   0  0  0  0  0  0  0  0  0  0  0  0
   21.1758   18.8602   23.0001 H   0  0  0  0  0  0  0  0  0  0  0  0
   19.4198   20.1252   22.6022 C   0  0  0  0  0  0  0  0  0  0  0  0
   19.7732   20.9191   21.9299 H   0  0  0  0  0  0  0  0  0  0  0  0
   18.6626   20.6024   23.2396 H   0  0  0  0  0  0  0  0  0  0  0  0
   18.7504   19.0081   21.7556 C   0  0  0  0  0  0  0  0  0  0  0  0
   18.8192   18.0367   22.2593 H   0  0  0  0  0  0  0  0  0  0  0  0
   17.6772   19.2311   21.6799 H   0  0  0  0  0  0  0  0  0  0  0  0
   19.3056   18.8822   20.3140 C   0  0  0  0  0  0  0  0  0  0  0  0
   19.1564   19.8294   19.7770 H   0  0  0  0  0  0  0  0  0  0  0  0
   18.7128   18.1304   19.7744 H   0  0  0  0  0  0  0  0  0  0  0  0
   20.7958   18.4818   20.2449 C   0  0  0  0  0  0  0  0  0  0  0  0
   21.1017   18.3195   19.2033 H   0  0  0  0  0  0  0  0  0  0  0  0
   20.9816   17.5518   20.7975 H   0  0  0  0  0  0  0  0  0  0  0  0
   21.4403   19.2674   20.6583 H   0  0  0  0  0  0  0  0  0  0  0  0
  1  2  1  0  0  0  0
  1  3  1  0  0  0  0
  1  4  1  0  0  0  0
  1  5  1  0  0  0  0
  5  6  1  0  0  0  0
  5  7  1  0  0  0  0
  5  8  1  0  0  0  0
  8  9  1  0  0  0  0
  8 10  1  0  0  0  0
  8 11  1  0  0  0  0
 11 12  1  0  0  0  0
 11 13  1  0  0  0  0
 11 14  1  0  0  0  0
 14 15  1  0  0  0  0
 14 16  1  0  0  0  0
 14 17  1  0  0  0  0
 17 18  1  0  0  0  0
 17 19  1  0  0  0  0
 17 20  1  0  0  0  0
 20 21  1  0  0  0  0
 20 22  1  0  0  0  0
 20 23  1  0  0  0  0
M  END
> <VM2 Rank>
78

> <Conf_Id>
681

> <Probability>
0.00

> <Sum Probability>
100.00

> <Delta G>
6.281

> <G>
44.197

> <E>
16.077

> <-TS>
28.120

> <U+W>
-2.702

> <U>
53.344

> <W>
-56.045

> <W(PB)>
-58.067

> <W(SA)>
2.021

> <Valence>
6.531

> <Coulomb>
46.150

> <VdW>
0.663

> <VdW6>
-7.490

> <VdW12>
8.153

> <Bond>
0.263

> <Angle>
1.395

> <Pdih>
4.874

> <Idih>
0.000

> <Tether>
0.000

$$$$
VeraChem MOL file


 23 22  0  0  0  0  0  0  0  0999 V2000     
   19.2699   17.5934   24.0686 N   0  3  0  0  0  0  0  0  0  0  0  0
   18.4347   17.0314   24.2655 H   0  0  0  0  0  0  0  0  0  0  0  0
   20.0530   17.1450   24.5552 H   0  0  0  0  0  0  0  0  0  0  0  0
   19.4557   17.5258   23.0628 H   0  0  0  0  0  0  0  0  0  0  0  0
   19.0928   19.0360   24.5013 C   0  0  0  0  0  0  0  0  0  0  0  0
   18.9014   19.0252   25.5778 H   0  0  0  0  0  0  0  0  0  0  0  0
   18.2094   19.4450   24.0039 H   0  0  0  0  0  0  0  0  0  0  0  0
   20.3161   19.9310   24.2166 C   0  0  0  0  0  0  0  0  0  0  0  0
   20.2620   20.7948   24.8923 H   0  0  0  0  0  0  0  0  0  0  0  0
   21.2371   19.3977   24.4873 H   0  0  0  0  0  0  0  0  0  0  0  0
   20.4182   20.4710   22.7647 C   0  0  0  0  0  0  0  0  0  0  0  0
   21.2956   21.1311   22.7208 H   0  0  0  0  0  0  0  0  0  0  0  0
   19.5557   21.1146   22.5424 H   0  0  0  0  0  0  0  0  0  0  0  0
   20.5756   19.3901   21.6646 C   0  0  0  0  0  0  0  0  0  0  0  0
   21.2435   19.7811   20.8844 H   0  0  0  0  0  0  0  0  0  0  0  0
   21.0833   18.5057   22.0719 H   0  0  0  0  0  0  0  0  0  0  0  0
   19.2351   19.0046   20.9927 C   0  0  0  0  0  0  0  0  0  0  0  0
   18.8375   19.8752   20.4521 H   0  0  0  0  0  0  0  0  0  0  0  0
   18.4781   18.7431   21.7417 H   0  0  0  0  0  0  0  0  0  0  0  0
   19.4083   17.8310   20.0055 C   0  0  0  0  0  0  0  0  0  0  0  0
   20.1230   18.0862   19.2121 H   0  0  0  0  0  0  0  0  0  0  0  0
   18.4516   17.5818   19.5282 H   0  0  0  0  0  0  0  0  0  0  0  0
   19.7739   16.9310   20.5166 H   0  0  0  0  0  0  0  0  0  0  0  0
  1  2  1  0  0  0  0
  1  3  1  0  0  0  0
  1  4  1  0  0  0  0
  1  5  1  0  0  0  0
  5  6  1  0  0  0  0
  5  7  1  0  0  0  0
  5  8  1  0  0  0  0
  8  9  1  0  0  0  0
  8 10  1  0  0  0  0
  8 11  1  0  0  0  0
 11 12  1  0  0  0  0
 11 13  1  0  0  0  0
 11 14  1  0  0  0  0
 14 15  1  0  0  0  0
 14 16  1  0  0  0  0
 14 17  1  0  0  0  0
 17 18  1  0  0  0  0
 17 19  1  0  0  0  0
 17 20  1  0  0  0  0
 20 21  1  0  0  0  0
 20 22  1  0  0  0  0
 20 23  1  0  0  0  0
M  END
> <VM2 Rank>
79

> <Conf_Id>
640

> <Probability>
0.00

> <Sum Probability>
100.00

> <Delta G>
6.772

> <G>
44.688

> <E>
16.391

> <-TS>
28.298

> <U+W>
-2.389

> <U>
52.836

> <W>
-55.224

> <W(PB)>
-57.261

> <W(SA)>
2.037

> <Valence>
5.785

> <Coulomb>
46.744

> <VdW>
0.307

> <VdW6>
-7.671

> <VdW12>
7.978

> <Bond>
0.217

> <Angle>
1.469

> <Pdih>
4.099

> <Idih>
0.000

> <Tether>
0.000

$$$$
VeraChem MOL file


 23 22  0  0  0  0  0  0  0  0999 V2000     
   21.0112   18.3179   24.1479 N   0  3  0  0  0  0  0  0  0  0  0  0
   21.9801   18.5066   24.4270 H   0  0  0  0  0  0  0  0  0  0  0  0
   21.0067   18.1711   23.1335 H   0  0  0  0  0  0  0  0  0  0  0  0
   20.7414   17.4315   24.5866 H   0  0  0  0  0  0  0  0  0  0  0  0
   20.0806   19.4470   24.5463 C   0  0  0  0  0  0  0  0  0  0  0  0
   20.4495   20.3770   24.1059 H   0  0  0  0  0  0  0  0  0  0  0  0
   20.1391   19.5402   25.6341 H   0  0  0  0  0  0  0  0  0  0  0  0
   18.6103   19.2212   24.1388 C   0  0  0  0  0  0  0  0  0  0  0  0
   18.3205   18.1842   24.3544 H   0  0  0  0  0  0  0  0  0  0  0  0
   17.9841   19.8471   24.7885 H   0  0  0  0  0  0  0  0  0  0  0  0
   18.2688   19.5767   22.6667 C   0  0  0  0  0  0  0  0  0  0  0  0
   18.4356   20.6486   22.4914 H   0  0  0  0  0  0  0  0  0  0  0  0
   17.1890   19.4224   22.5337 H   0  0  0  0  0  0  0  0  0  0  0  0
   19.0091   18.7383   21.5932 C   0  0  0  0  0  0  0  0  0  0  0  0
   19.2473   17.7418   21.9882 H   0  0  0  0  0  0  0  0  0  0  0  0
   18.3240   18.5663   20.7513 H   0  0  0  0  0  0  0  0  0  0  0  0
   20.2750   19.4373   21.0401 C   0  0  0  0  0  0  0  0  0  0  0  0
   20.9333   19.7647   21.8536 H   0  0  0  0  0  0  0  0  0  0  0  0
   19.9795   20.3503   20.5042 H   0  0  0  0  0  0  0  0  0  0  0  0
   21.0611   18.5187   20.0809 C   0  0  0  0  0  0  0  0  0  0  0  0
   21.4021   17.6085   20.5908 H   0  0  0  0  0  0  0  0  0  0  0  0
   21.9460   19.0357   19.6875 H   0  0  0  0  0  0  0  0  0  0  0  0
   20.4404   18.2183   19.2266 H   0  0  0  0  0  0  0  0  0  0  0  0
  1  2  1  0  0  0  0
  1  3  1  0  0  0  0
  1  4  1  0  0  0  0
  1  5  1  0  0  0  0
  5  6  1  0  0  0  0
  5  7  1  0  0  0  0
  5  8  1  0  0  0  0
  8  9  1  0  0  0  0
  8 10  1  0  0  0  0
  8 11  1  0  0  0  0
 11 12  1  0  0  0  0
 11 13  1  0  0  0  0
 11 14  1  0  0  0  0
 14 15  1  0  0  0  0
 14 16  1  0  0  0  0
 14 17  1  0  0  0  0
 17 18  1  0  0  0  0
 17 19  1  0  0  0  0
 17 20  1  0  0  0  0
 20 21  1  0  0  0  0
 20 22  1  0  0  0  0
 20 23  1  0  0  0  0
M  END
> <VM2 Rank>
80

> <Conf_Id>
257

> <Probability>
0.00

> <Sum Probability>
100.00

> <Delta G>
6.865

> <G>
44.782

> <E>
16.484

> <-TS>
28.298

> <U+W>
-2.295

> <U>
52.836

> <W>
-55.131

> <W(PB)>
-57.202

> <W(SA)>
2.071

> <Valence>
5.785

> <Coulomb>
46.744

> <VdW>
0.307

> <VdW6>
-7.672

> <VdW12>
7.979

> <Bond>
0.217

> <Angle>
1.470

> <Pdih>
4.098

> <Idih>
0.000

> <Tether>
0.000

$$$$
VeraChem MOL file


 23 22  0  0  0  0  0  0  0  0999 V2000     
   19.0231   17.8556   24.4794 N   0  3  0  0  0  0  0  0  0  0  0  0
   19.2552   17.4562   23.5651 H   0  0  0  0  0  0  0  0  0  0  0  0
   18.0967   17.5025   24.7426 H   0  0  0  0  0  0  0  0  0  0  0  0
   19.6911   17.4740   25.1570 H   0  0  0  0  0  0  0  0  0  0  0  0
   19.0601   19.3711   24.4482 C   0  0  0  0  0  0  0  0  0  0  0  0
   18.8093   19.7171   25.4546 H   0  0  0  0  0  0  0  0  0  0  0  0
   18.2852   19.7269   23.7640 H   0  0  0  0  0  0  0  0  0  0  0  0
   20.4276   19.9560   24.0410 C   0  0  0  0  0  0  0  0  0  0  0  0
   20.4880   20.9751   24.4456 H   0  0  0  0  0  0  0  0  0  0  0  0
   21.2343   19.3930   24.5290 H   0  0  0  0  0  0  0  0  0  0  0  0
   20.6795   20.0387   22.5118 C   0  0  0  0  0  0  0  0  0  0  0  0
   21.6523   20.5282   22.3659 H   0  0  0  0  0  0  0  0  0  0  0  0
   19.9434   20.7111   22.0532 H   0  0  0  0  0  0  0  0  0  0  0  0
   20.7144   18.6756   21.7699 C   0  0  0  0  0  0  0  0  0  0  0  0
   21.4795   18.7215   20.9823 H   0  0  0  0  0  0  0  0  0  0  0  0
   21.0567   17.8895   22.4559 H   0  0  0  0  0  0  0  0  0  0  0  0
   19.3701   18.2663   21.1138 C   0  0  0  0  0  0  0  0  0  0  0  0
   18.5423   18.3566   21.8275 H   0  0  0  0  0  0  0  0  0  0  0  0
   19.4228   17.2056   20.8308 H   0  0  0  0  0  0  0  0  0  0  0  0
   19.0411   19.0937   19.8499 C   0  0  0  0  0  0  0  0  0  0  0  0
   18.9050   20.1565   20.0839 H   0  0  0  0  0  0  0  0  0  0  0  0
   18.1126   18.7353   19.3870 H   0  0  0  0  0  0  0  0  0  0  0  0
   19.8410   19.0084   19.1030 H   0  0  0  0  0  0  0  0  0  0  0  0
  1  2  1  0  0  0  0
  1  3  1  0  0  0  0
  1  4  1  0  0  0  0
  1  5  1  0  0  0  0
  5  6  1  0  0  0  0
  5  7  1  0  0  0  0
  5  8  1  0  0  0  0
  8  9  1  0  0  0  0
  8 10  1  0  0  0  0
  8 11  1  0  0  0  0
 11 12  1  0  0  0  0
 11 13  1  0  0  0  0
 11 14  1  0  0  0  0
 14 15  1  0  0  0  0
 14 16  1  0  0  0  0
 14 17  1  0  0  0  0
 17 18  1  0  0  0  0
 17 19  1  0  0  0  0
 17 20  1  0  0  0  0
 20 21  1  0  0  0  0
 20 22  1  0  0  0  0
 20 23  1  0  0  0  0
M  END
> <VM2 Rank>
81

> <Conf_Id>
678

> <Probability>
0.00

> <Sum Probability>
100.00

> <Delta G>
6.934

> <G>
44.850

> <E>
16.564

> <-TS>
28.286

> <U+W>
-2.215

> <U>
53.835

> <W>
-56.050

> <W(PB)>
-58.079

> <W(SA)>
2.029

> <Valence>
6.520

> <Coulomb>
46.847

> <VdW>
0.468

> <VdW6>
-7.907

> <VdW12>
8.375

> <Bond>
0.262

> <Angle>
1.644

> <Pdih>
4.614

> <Idih>
0.000

> <Tether>
0.000

$$$$
VeraChem MOL file


 23 22  0  0  0  0  0  0  0  0999 V2000     
   19.6245   17.5747   24.3819 N   0  3  0  0  0  0  0  0  0  0  0  0
   19.0945   17.4390   23.5168 H   0  0  0  0  0  0  0  0  0  0  0  0
   19.1348   17.0610   25.1225 H   0  0  0  0  0  0  0  0  0  0  0  0
   20.5342   17.1198   24.2552 H   0  0  0  0  0  0  0  0  0  0  0  0
   19.7767   19.0439   24.7242 C   0  0  0  0  0  0  0  0  0  0  0  0
   20.3588   19.0956   25.6482 H   0  0  0  0  0  0  0  0  0  0  0  0
   18.7861   19.4610   24.9245 H   0  0  0  0  0  0  0  0  0  0  0  0
   20.4863   19.8768   23.6366 C   0  0  0  0  0  0  0  0  0  0  0  0
   20.9715   20.7243   24.1387 H   0  0  0  0  0  0  0  0  0  0  0  0
   21.3035   19.2989   23.1940 H   0  0  0  0  0  0  0  0  0  0  0  0
   19.5405   20.4631   22.5524 C   0  0  0  0  0  0  0  0  0  0  0  0
   20.1163   21.1241   21.8902 H   0  0  0  0  0  0  0  0  0  0  0  0
   18.8213   21.1182   23.0634 H   0  0  0  0  0  0  0  0  0  0  0  0
   18.7344   19.4544   21.6883 C   0  0  0  0  0  0  0  0  0  0  0  0
   18.3230   18.6452   22.3001 H   0  0  0  0  0  0  0  0  0  0  0  0
   17.8541   19.9891   21.3053 H   0  0  0  0  0  0  0  0  0  0  0  0
   19.4777   18.8812   20.4537 C   0  0  0  0  0  0  0  0  0  0  0  0
   19.8129   19.7050   19.8083 H   0  0  0  0  0  0  0  0  0  0  0  0
   18.7549   18.3071   19.8571 H   0  0  0  0  0  0  0  0  0  0  0  0
   20.6760   17.9628   20.7769 C   0  0  0  0  0  0  0  0  0  0  0  0
   21.5298   18.5370   21.1531 H   0  0  0  0  0  0  0  0  0  0  0  0
   21.0136   17.4466   19.8689 H   0  0  0  0  0  0  0  0  0  0  0  0
   20.4083   17.1968   21.5145 H   0  0  0  0  0  0  0  0  0  0  0  0
  1  2  1  0  0  0  0
  1  3  1  0  0  0  0
  1  4  1  0  0  0  0
  1  5  1  0  0  0  0
  5  6  1  0  0  0  0
  5  7  1  0  0  0  0
  5  8  1  0  0  0  0
  8  9  1  0  0  0  0
  8 10  1  0  0  0  0
  8 11  1  0  0  0  0
 11 12  1  0  0  0  0
 11 13  1  0  0  0  0
 11 14  1  0  0  0  0
 14 15  1  0  0  0  0
 14 16  1  0  0  0  0
 14 17  1  0  0  0  0
 17 18  1  0  0  0  0
 17 19  1  0  0  0  0
 17 20  1  0  0  0  0
 20 21  1  0  0  0  0
 20 22  1  0  0  0  0
 20 23  1  0  0  0  0
M  END
> <VM2 Rank>
82

> <Conf_Id>
729

> <Probability>
0.00

> <Sum Probability>
100.00

> <Delta G>
7.062

> <G>
44.978

> <E>
17.241

> <-TS>
27.737

> <U+W>
-1.538

> <U>
54.309

> <W>
-55.847

> <W(PB)>
-57.846

> <W(SA)>
1.999

> <Valence>
6.918

> <Coulomb>
47.202

> <VdW>
0.189

> <VdW6>
-7.842

> <VdW12>
8.031

> <Bond>
0.291

> <Angle>
2.810

> <Pdih>
3.817

> <Idih>
0.000

> <Tether>
0.000

$$$$
VeraChem MOL file


 23 22  0  0  0  0  0  0  0  0999 V2000     
   20.9670   18.6647   24.5680 N   0  3  0  0  0  0  0  0  0  0  0  0
   20.7160   17.9006   25.2037 H   0  0  0  0  0  0  0  0  0  0  0  0
   21.8467   19.0635   24.9135 H   0  0  0  0  0  0  0  0  0  0  0  0
   21.1581   18.2483   23.6519 H   0  0  0  0  0  0  0  0  0  0  0  0
   19.8700   19.7082   24.4851 C   0  0  0  0  0  0  0  0  0  0  0  0
   20.2148   20.5301   23.8520 H   0  0  0  0  0  0  0  0  0  0  0  0
   19.7229   20.0974   25.4962 H   0  0  0  0  0  0  0  0  0  0  0  0
   18.5278   19.1652   23.9545 C   0  0  0  0  0  0  0  0  0  0  0  0
   18.3228   18.1811   24.3963 H   0  0  0  0  0  0  0  0  0  0  0  0
   17.7323   19.8280   24.3200 H   0  0  0  0  0  0  0  0  0  0  0  0
   18.4111   19.0945   22.4084 C   0  0  0  0  0  0  0  0  0  0  0  0
   18.4869   20.1048   21.9868 H   0  0  0  0  0  0  0  0  0  0  0  0
   17.3932   18.7552   22.1718 H   0  0  0  0  0  0  0  0  0  0  0  0
   19.4097   18.1325   21.7104 C   0  0  0  0  0  0  0  0  0  0  0  0
   19.6732   17.3136   22.3928 H   0  0  0  0  0  0  0  0  0  0  0  0
   18.9016   17.6484   20.8648 H   0  0  0  0  0  0  0  0  0  0  0  0
   20.6937   18.8174   21.1741 C   0  0  0  0  0  0  0  0  0  0  0  0
   21.4300   18.0412   20.9224 H   0  0  0  0  0  0  0  0  0  0  0  0
   21.1551   19.4444   21.9466 H   0  0  0  0  0  0  0  0  0  0  0  0
   20.4365   19.6745   19.9135 C   0  0  0  0  0  0  0  0  0  0  0  0
   21.3777   20.0945   19.5358 H   0  0  0  0  0  0  0  0  0  0  0  0
   19.7609   20.5127   20.1228 H   0  0  0  0  0  0  0  0  0  0  0  0
   19.9937   19.0718   19.1100 H   0  0  0  0  0  0  0  0  0  0  0  0
  1  2  1  0  0  0  0
  1  3  1  0  0  0  0
  1  4  1  0  0  0  0
  1  5  1  0  0  0  0
  5  6  1  0  0  0  0
  5  7  1  0  0  0  0
  5  8  1  0  0  0  0
  8  9  1  0  0  0  0
  8 10  1  0  0  0  0
  8 11  1  0  0  0  0
 11 12  1  0  0  0  0
 11 13  1  0  0  0  0
 11 14  1  0  0  0  0
 14 15  1  0  0  0  0
 14 16  1  0  0  0  0
 14 17  1  0  0  0  0
 17 18  1  0  0  0  0
 17 19  1  0  0  0  0
 17 20  1  0  0  0  0
 20 21  1  0  0  0  0
 20 22  1  0  0  0  0
 20 23  1  0  0  0  0
M  END
> <VM2 Rank>
83

> <Conf_Id>
168

> <Probability>
0.00

> <Sum Probability>
100.00

> <Delta G>
7.089

> <G>
45.005

> <E>
16.718

> <-TS>
28.286

> <U+W>
-2.061

> <U>
53.835

> <W>
-55.896

> <W(PB)>
-57.909

> <W(SA)>
2.013

> <Valence>
6.519

> <Coulomb>
46.847

> <VdW>
0.469

> <VdW6>
-7.907

> <VdW12>
8.375

> <Bond>
0.262

> <Angle>
1.644

> <Pdih>
4.614

> <Idih>
0.000

> <Tether>
0.000

$$$$
