@<TRIPOS>MOLECULE
guest-2_vm2.mol2 : vm2 ligand conformer 1
          23          22           1
SMALL
USER_CHARGES
 
@<TRIPOS>ATOM
       1    N1      19.741452   18.661009   26.427820 N.4        1 MOL1        -0.5940
       2    H1      20.732149   18.417518   26.528393 H          1 MOL1         0.3649
       3    H2      19.210795   17.784478   26.459127 H          1 MOL1         0.3649
       4    H3      19.480326   19.197258   27.262292 H          1 MOL1         0.3649
       5    C1      19.476313   19.437582   25.154033 C.3        1 MOL1         0.0207
       6    H4      20.047643   20.368627   25.201284 H          1 MOL1         0.0950
       7    H5      18.412389   19.688228   25.126848 H          1 MOL1         0.0950
       8    C2      19.857901   18.659609   23.882134 C.3        1 MOL1        -0.1415
       9    H6      20.923244   18.395798   23.921478 H          1 MOL1         0.0976
      10    H7      19.293725   17.718025   23.847175 H          1 MOL1         0.0976
      11    C3      19.572851   19.484672   22.607693 C.3        1 MOL1        -0.1375
      12    H8      20.134996   20.428120   22.648941 H          1 MOL1         0.0976
      13    H9      18.507156   19.751154   22.574762 H          1 MOL1         0.0976
      14    C4      19.952482   18.712494   21.323706 C.3        1 MOL1        -0.1375
      15    H10     21.018044   18.446006   21.356462 H          1 MOL1         0.0976
      16    H11     19.390394   17.769175   21.282260 H          1 MOL1         0.0976
      17    C5      19.667334   19.537939   20.049308 C.3        1 MOL1        -0.1350
      18    H12     20.229396   20.481757   20.084876 H          1 MOL1         0.0976
      19    H13     18.601890   19.804974   20.010660 H          1 MOL1         0.0976
      20    C6      20.047667   18.763695   18.769307 C.3        1 MOL1        -0.2365
      21    H14     21.116235   18.511995   18.762980 H          1 MOL1         0.0987
      22    H15     19.838164   19.365590   17.875507 H          1 MOL1         0.0987
      23    H16     19.476012   17.829964   18.688153 H          1 MOL1         0.0987
@<TRIPOS>BOND
    1     1     2    1
    2     1     3    1
    3     1     4    1
    4     1     5    1
    5     5     6    1
    6     5     7    1
    7     5     8    1
    8     8     9    1
    9     8    10    1
   10     8    11    1
   11    11    12    1
   12    11    13    1
   13    11    14    1
   14    14    15    1
   15    14    16    1
   16    14    17    1
   17    17    18    1
   18    17    19    1
   19    17    20    1
   20    20    21    1
   21    20    22    1
   22    20    23    1
@<TRIPOS>SUBSTRUCTURE
       1 MOL1            1 RESIDUE      1      MOL     
@<SCITEGIC>MOL_PROPERTY
VM2 Rank
SciTegic.value.IntegerValue
1

@<SCITEGIC>MOL_PROPERTY
Conf_Id
SciTegic.value.IntegerValue
241

@<SCITEGIC>MOL_PROPERTY
Probability
SciTegic.value.DoubleValue
12.96

@<SCITEGIC>MOL_PROPERTY
Sum Probability
SciTegic.value.DoubleValue
12.96

@<SCITEGIC>MOL_PROPERTY
Delta G
SciTegic.value.DoubleValue
0.000

@<SCITEGIC>MOL_PROPERTY
G
SciTegic.value.DoubleValue
37.916

@<SCITEGIC>MOL_PROPERTY
E
SciTegic.value.DoubleValue
10.396

@<SCITEGIC>MOL_PROPERTY
-TS
SciTegic.value.DoubleValue
27.520

@<SCITEGIC>MOL_PROPERTY
U+W
SciTegic.value.DoubleValue
-8.383

@<SCITEGIC>MOL_PROPERTY
U
SciTegic.value.DoubleValue
46.604

@<SCITEGIC>MOL_PROPERTY
W
SciTegic.value.DoubleValue
-54.987

@<SCITEGIC>MOL_PROPERTY
W(PB)
SciTegic.value.DoubleValue
-57.163

@<SCITEGIC>MOL_PROPERTY
W(SA)
SciTegic.value.DoubleValue
2.176

@<SCITEGIC>MOL_PROPERTY
Valence
SciTegic.value.DoubleValue
1.727

@<SCITEGIC>MOL_PROPERTY
Coulomb
SciTegic.value.DoubleValue
44.434

@<SCITEGIC>MOL_PROPERTY
VdW
SciTegic.value.DoubleValue
0.443

@<SCITEGIC>MOL_PROPERTY
VdW6
SciTegic.value.DoubleValue
-4.623

@<SCITEGIC>MOL_PROPERTY
VdW12
SciTegic.value.DoubleValue
5.066

@<SCITEGIC>MOL_PROPERTY
Bond
SciTegic.value.DoubleValue
0.112

@<SCITEGIC>MOL_PROPERTY
Angle
SciTegic.value.DoubleValue
0.386

@<SCITEGIC>MOL_PROPERTY
Pdih
SciTegic.value.DoubleValue
1.228

@<SCITEGIC>MOL_PROPERTY
Idih
SciTegic.value.DoubleValue
0.000

@<SCITEGIC>MOL_PROPERTY
Tether
SciTegic.value.DoubleValue
0.000

@<TRIPOS>MOLECULE
guest-2_vm2.mol2 : vm2 ligand conformer 2
          23          22           1
SMALL
USER_CHARGES
 
@<TRIPOS>ATOM
       1    N1      18.729791   18.742348   25.715464 N.4        1 MOL1        -0.5940
       2    H1      18.430213   19.073415   26.638850 H          1 MOL1         0.3649
       3    H2      18.775156   17.719536   25.765246 H          1 MOL1         0.3649
       4    H3      17.983362   18.980870   25.055548 H          1 MOL1         0.3649
       5    C1      20.058654   19.346463   25.305089 C.3        1 MOL1         0.0207
       6    H4      20.792374   19.085715   26.072718 H          1 MOL1         0.0950
       7    H5      19.948418   20.434202   25.295038 H          1 MOL1         0.0950
       8    C2      20.563244   18.863477   23.931414 C.3        1 MOL1        -0.1415
       9    H6      21.569246   19.272332   23.767770 H          1 MOL1         0.0976
      10    H7      20.667622   17.770337   23.942902 H          1 MOL1         0.0976
      11    C3      19.638976   19.296122   22.768534 C.3        1 MOL1        -0.1375
      12    H8      19.516546   20.388100   22.785421 H          1 MOL1         0.0976
      13    H9      18.639734   18.861155   22.904018 H          1 MOL1         0.0976
      14    C4      20.201199   18.861318   21.396029 C.3        1 MOL1        -0.1375
      15    H10     21.199372   19.297763   21.252327 H          1 MOL1         0.0976
      16    H11     20.326534   17.769748   21.379453 H          1 MOL1         0.0976
      17    C5      19.279535   19.291415   20.233113 C.3        1 MOL1        -0.1350
      18    H12     19.152665   20.383085   20.244313 H          1 MOL1         0.0976
      19    H13     18.280257   18.854887   20.370350 H          1 MOL1         0.0976
      20    C6      19.844602   18.855858   18.864358 C.3        1 MOL1        -0.2365
      21    H14     19.176881   19.169876   18.051596 H          1 MOL1         0.0987
      22    H15     19.950867   17.764522   18.810312 H          1 MOL1         0.0987
      23    H16     20.829968   19.304675   18.683126 H          1 MOL1         0.0987
@<TRIPOS>BOND
    1     1     2    1
    2     1     3    1
    3     1     4    1
    4     1     5    1
    5     5     6    1
    6     5     7    1
    7     5     8    1
    8     8     9    1
    9     8    10    1
   10     8    11    1
   11    11    12    1
   12    11    13    1
   13    11    14    1
   14    14    15    1
   15    14    16    1
   16    14    17    1
   17    17    18    1
   18    17    19    1
   19    17    20    1
   20    20    21    1
   21    20    22    1
   22    20    23    1
@<TRIPOS>SUBSTRUCTURE
       1 MOL1            1 RESIDUE      1      MOL     
@<SCITEGIC>MOL_PROPERTY
VM2 Rank
SciTegic.value.IntegerValue
2

@<SCITEGIC>MOL_PROPERTY
Conf_Id
SciTegic.value.IntegerValue
514

@<SCITEGIC>MOL_PROPERTY
Probability
SciTegic.value.DoubleValue
7.75

@<SCITEGIC>MOL_PROPERTY
Sum Probability
SciTegic.value.DoubleValue
20.71

@<SCITEGIC>MOL_PROPERTY
Delta G
SciTegic.value.DoubleValue
0.307

@<SCITEGIC>MOL_PROPERTY
G
SciTegic.value.DoubleValue
38.223

@<SCITEGIC>MOL_PROPERTY
E
SciTegic.value.DoubleValue
10.600

@<SCITEGIC>MOL_PROPERTY
-TS
SciTegic.value.DoubleValue
27.622

@<SCITEGIC>MOL_PROPERTY
U+W
SciTegic.value.DoubleValue
-8.179

@<SCITEGIC>MOL_PROPERTY
U
SciTegic.value.DoubleValue
47.288

@<SCITEGIC>MOL_PROPERTY
W
SciTegic.value.DoubleValue
-55.467

@<SCITEGIC>MOL_PROPERTY
W(PB)
SciTegic.value.DoubleValue
-57.600

@<SCITEGIC>MOL_PROPERTY
W(SA)
SciTegic.value.DoubleValue
2.133

@<SCITEGIC>MOL_PROPERTY
Valence
SciTegic.value.DoubleValue
1.833

@<SCITEGIC>MOL_PROPERTY
Coulomb
SciTegic.value.DoubleValue
44.908

@<SCITEGIC>MOL_PROPERTY
VdW
SciTegic.value.DoubleValue
0.548

@<SCITEGIC>MOL_PROPERTY
VdW6
SciTegic.value.DoubleValue
-5.142

@<SCITEGIC>MOL_PROPERTY
VdW12
SciTegic.value.DoubleValue
5.690

@<SCITEGIC>MOL_PROPERTY
Bond
SciTegic.value.DoubleValue
0.133

@<SCITEGIC>MOL_PROPERTY
Angle
SciTegic.value.DoubleValue
0.431

@<SCITEGIC>MOL_PROPERTY
Pdih
SciTegic.value.DoubleValue
1.269

@<SCITEGIC>MOL_PROPERTY
Idih
SciTegic.value.DoubleValue
0.000

@<SCITEGIC>MOL_PROPERTY
Tether
SciTegic.value.DoubleValue
0.000

@<TRIPOS>MOLECULE
guest-2_vm2.mol2 : vm2 ligand conformer 3
          23          22           1
SMALL
USER_CHARGES
 
@<TRIPOS>ATOM
       1    N1      19.509680   18.259854   26.054843 N.4        1 MOL1        -0.5940
       2    H1      20.406716   17.770594   26.137230 H          1 MOL1         0.3649
       3    H2      18.790051   17.626324   26.419271 H          1 MOL1         0.3649
       4    H3      19.546067   19.064857   26.688482 H          1 MOL1         0.3649
       5    C1      19.221975   18.676837   24.626865 C.3        1 MOL1         0.0207
       6    H4      18.243257   19.163842   24.608065 H          1 MOL1         0.0950
       7    H5      19.167462   17.770913   24.017749 H          1 MOL1         0.0950
       8    C2      20.286039   19.629936   24.050472 C.3        1 MOL1        -0.1415
       9    H6      20.362126   20.515026   24.696052 H          1 MOL1         0.0976
      10    H7      21.269207   19.141073   24.070277 H          1 MOL1         0.0976
      11    C3      19.961519   20.086857   22.608617 C.3        1 MOL1        -0.1375
      12    H8      20.707675   20.831707   22.298938 H          1 MOL1         0.0976
      13    H9      18.988915   20.598275   22.596548 H          1 MOL1         0.0976
      14    C4      19.951985   18.922229   21.589298 C.3        1 MOL1        -0.1375
      15    H10     20.914034   18.392697   21.627673 H          1 MOL1         0.0976
      16    H11     19.176370   18.193117   21.859251 H          1 MOL1         0.0976
      17    C5      19.697722   19.421866   20.149686 C.3        1 MOL1        -0.1350
      18    H12     20.473568   20.146589   19.865436 H          1 MOL1         0.0976
      19    H13     18.736565   19.953111   20.105698 H          1 MOL1         0.0976
      20    C6      19.687081   18.259420   19.134219 C.3        1 MOL1        -0.2365
      21    H14     20.648378   17.729207   19.131030 H          1 MOL1         0.0987
      22    H15     19.505620   18.633793   18.118364 H          1 MOL1         0.0987
      23    H16     18.897614   17.534559   19.371999 H          1 MOL1         0.0987
@<TRIPOS>BOND
    1     1     2    1
    2     1     3    1
    3     1     4    1
    4     1     5    1
    5     5     6    1
    6     5     7    1
    7     5     8    1
    8     8     9    1
    9     8    10    1
   10     8    11    1
   11    11    12    1
   12    11    13    1
   13    11    14    1
   14    14    15    1
   15    14    16    1
   16    14    17    1
   17    17    18    1
   18    17    19    1
   19    17    20    1
   20    20    21    1
   21    20    22    1
   22    20    23    1
@<TRIPOS>SUBSTRUCTURE
       1 MOL1            1 RESIDUE      1      MOL     
@<SCITEGIC>MOL_PROPERTY
VM2 Rank
SciTegic.value.IntegerValue
3

@<SCITEGIC>MOL_PROPERTY
Conf_Id
SciTegic.value.IntegerValue
130

@<SCITEGIC>MOL_PROPERTY
Probability
SciTegic.value.DoubleValue
5.96

@<SCITEGIC>MOL_PROPERTY
Sum Probability
SciTegic.value.DoubleValue
26.67

@<SCITEGIC>MOL_PROPERTY
Delta G
SciTegic.value.DoubleValue
0.463

@<SCITEGIC>MOL_PROPERTY
G
SciTegic.value.DoubleValue
38.379

@<SCITEGIC>MOL_PROPERTY
E
SciTegic.value.DoubleValue
10.761

@<SCITEGIC>MOL_PROPERTY
-TS
SciTegic.value.DoubleValue
27.618

@<SCITEGIC>MOL_PROPERTY
U+W
SciTegic.value.DoubleValue
-8.018

@<SCITEGIC>MOL_PROPERTY
U
SciTegic.value.DoubleValue
47.375

@<SCITEGIC>MOL_PROPERTY
W
SciTegic.value.DoubleValue
-55.393

@<SCITEGIC>MOL_PROPERTY
W(PB)
SciTegic.value.DoubleValue
-57.544

@<SCITEGIC>MOL_PROPERTY
W(SA)
SciTegic.value.DoubleValue
2.152

@<SCITEGIC>MOL_PROPERTY
Valence
SciTegic.value.DoubleValue
2.032

@<SCITEGIC>MOL_PROPERTY
Coulomb
SciTegic.value.DoubleValue
44.843

@<SCITEGIC>MOL_PROPERTY
VdW
SciTegic.value.DoubleValue
0.500

@<SCITEGIC>MOL_PROPERTY
VdW6
SciTegic.value.DoubleValue
-5.218

@<SCITEGIC>MOL_PROPERTY
VdW12
SciTegic.value.DoubleValue
5.718

@<SCITEGIC>MOL_PROPERTY
Bond
SciTegic.value.DoubleValue
0.135

@<SCITEGIC>MOL_PROPERTY
Angle
SciTegic.value.DoubleValue
0.514

@<SCITEGIC>MOL_PROPERTY
Pdih
SciTegic.value.DoubleValue
1.383

@<SCITEGIC>MOL_PROPERTY
Idih
SciTegic.value.DoubleValue
0.000

@<SCITEGIC>MOL_PROPERTY
Tether
SciTegic.value.DoubleValue
0.000

@<TRIPOS>MOLECULE
guest-2_vm2.mol2 : vm2 ligand conformer 4
          23          22           1
SMALL
USER_CHARGES
 
@<TRIPOS>ATOM
       1    N1      20.216821   18.553999   26.087111 N.4        1 MOL1        -0.5940
       2    H1      21.142235   18.604582   26.526524 H          1 MOL1         0.3649
       3    H2      19.926914   17.571151   26.115450 H          1 MOL1         0.3649
       4    H3      19.572310   19.075881   26.689686 H          1 MOL1         0.3649
       5    C1      20.234460   19.097894   24.673024 C.3        1 MOL1         0.0207
       6    H4      20.961251   18.516865   24.099548 H          1 MOL1         0.0950
       7    H5      20.578332   20.134935   24.714467 H          1 MOL1         0.0950
       8    C2      18.857459   19.035786   23.985371 C.3        1 MOL1        -0.1415
       9    H6      18.511716   17.994251   23.944631 H          1 MOL1         0.0976
      10    H7      18.127436   19.585633   24.594207 H          1 MOL1         0.0976
      11    C3      18.873681   19.634401   22.559036 C.3        1 MOL1        -0.1375
      12    H8      19.195318   20.684162   22.605945 H          1 MOL1         0.0976
      13    H9      17.846599   19.641659   22.168522 H          1 MOL1         0.0976
      14    C4      19.783960   18.852365   21.581653 C.3        1 MOL1        -0.1375
      15    H10     20.823696   18.878541   21.934245 H          1 MOL1         0.0976
      16    H11     19.480666   17.796400   21.562504 H          1 MOL1         0.0976
      17    C5      19.720168   19.431148   20.150670 C.3        1 MOL1        -0.1350
      18    H12     20.021970   20.487894   20.164104 H          1 MOL1         0.0976
      19    H13     18.684489   19.402098   19.783951 H          1 MOL1         0.0976
      20    C6      20.629451   18.651407   19.177135 C.3        1 MOL1        -0.2365
      21    H14     20.570316   19.076574   18.166798 H          1 MOL1         0.0987
      22    H15     20.330552   17.596779   19.116740 H          1 MOL1         0.0987
      23    H16     21.678404   18.691614   19.498538 H          1 MOL1         0.0987
@<TRIPOS>BOND
    1     1     2    1
    2     1     3    1
    3     1     4    1
    4     1     5    1
    5     5     6    1
    6     5     7    1
    7     5     8    1
    8     8     9    1
    9     8    10    1
   10     8    11    1
   11    11    12    1
   12    11    13    1
   13    11    14    1
   14    14    15    1
   15    14    16    1
   16    14    17    1
   17    17    18    1
   18    17    19    1
   19    17    20    1
   20    20    21    1
   21    20    22    1
   22    20    23    1
@<TRIPOS>SUBSTRUCTURE
       1 MOL1            1 RESIDUE      1      MOL     
@<SCITEGIC>MOL_PROPERTY
VM2 Rank
SciTegic.value.IntegerValue
4

@<SCITEGIC>MOL_PROPERTY
Conf_Id
SciTegic.value.IntegerValue
692

@<SCITEGIC>MOL_PROPERTY
Probability
SciTegic.value.DoubleValue
5.33

@<SCITEGIC>MOL_PROPERTY
Sum Probability
SciTegic.value.DoubleValue
32.01

@<SCITEGIC>MOL_PROPERTY
Delta G
SciTegic.value.DoubleValue
0.529

@<SCITEGIC>MOL_PROPERTY
G
SciTegic.value.DoubleValue
38.445

@<SCITEGIC>MOL_PROPERTY
E
SciTegic.value.DoubleValue
10.827

@<SCITEGIC>MOL_PROPERTY
-TS
SciTegic.value.DoubleValue
27.618

@<SCITEGIC>MOL_PROPERTY
U+W
SciTegic.value.DoubleValue
-7.952

@<SCITEGIC>MOL_PROPERTY
U
SciTegic.value.DoubleValue
47.375

@<SCITEGIC>MOL_PROPERTY
W
SciTegic.value.DoubleValue
-55.326

@<SCITEGIC>MOL_PROPERTY
W(PB)
SciTegic.value.DoubleValue
-57.491

@<SCITEGIC>MOL_PROPERTY
W(SA)
SciTegic.value.DoubleValue
2.164

@<SCITEGIC>MOL_PROPERTY
Valence
SciTegic.value.DoubleValue
2.032

@<SCITEGIC>MOL_PROPERTY
Coulomb
SciTegic.value.DoubleValue
44.843

@<SCITEGIC>MOL_PROPERTY
VdW
SciTegic.value.DoubleValue
0.499

@<SCITEGIC>MOL_PROPERTY
VdW6
SciTegic.value.DoubleValue
-5.218

@<SCITEGIC>MOL_PROPERTY
VdW12
SciTegic.value.DoubleValue
5.717

@<SCITEGIC>MOL_PROPERTY
Bond
SciTegic.value.DoubleValue
0.135

@<SCITEGIC>MOL_PROPERTY
Angle
SciTegic.value.DoubleValue
0.514

@<SCITEGIC>MOL_PROPERTY
Pdih
SciTegic.value.DoubleValue
1.383

@<SCITEGIC>MOL_PROPERTY
Idih
SciTegic.value.DoubleValue
0.000

@<SCITEGIC>MOL_PROPERTY
Tether
SciTegic.value.DoubleValue
0.000

@<TRIPOS>MOLECULE
guest-2_vm2.mol2 : vm2 ligand conformer 5
          23          22           1
SMALL
USER_CHARGES
 
@<TRIPOS>ATOM
       1    N1      19.547377   18.752153   26.321646 N.4        1 MOL1        -0.5940
       2    H1      18.841148   18.969397   27.033071 H          1 MOL1         0.3649
       3    H2      20.408358   19.233934   26.599985 H          1 MOL1         0.3649
       4    H3      19.731788   17.745614   26.382813 H          1 MOL1         0.3649
       5    C1      19.093607   19.160797   24.934927 C.3        1 MOL1         0.0207
       6    H4      18.887582   20.234493   24.949968 H          1 MOL1         0.0950
       7    H5      18.160283   18.634765   24.716560 H          1 MOL1         0.0950
       8    C2      20.132270   18.847912   23.843198 C.3        1 MOL1        -0.1415
       9    H6      21.072800   19.364976   24.075802 H          1 MOL1         0.0976
      10    H7      20.347972   17.771080   23.842297 H          1 MOL1         0.0976
      11    C3      19.632194   19.279057   22.446636 C.3        1 MOL1        -0.1375
      12    H8      19.415906   20.356425   22.451754 H          1 MOL1         0.0976
      13    H9      18.686532   18.764779   22.229884 H          1 MOL1         0.0976
      14    C4      20.669474   18.964564   21.341783 C.3        1 MOL1        -0.1375
      15    H10     21.629803   19.426965   21.608913 H          1 MOL1         0.0976
      16    H11     20.849459   17.881443   21.299502 H          1 MOL1         0.0976
      17    C5      20.252357   19.473889   19.940827 C.3        1 MOL1        -0.1350
      18    H12     21.084488   19.306369   19.242723 H          1 MOL1         0.0976
      19    H13     20.092439   20.560722   19.972764 H          1 MOL1         0.0976
      20    C6      18.988721   18.778628   19.384983 C.3        1 MOL1        -0.2365
      21    H14     19.112162   17.687956   19.370285 H          1 MOL1         0.0987
      22    H15     18.790329   19.107586   18.356697 H          1 MOL1         0.0987
      23    H16     18.100912   19.016592   19.983804 H          1 MOL1         0.0987
@<TRIPOS>BOND
    1     1     2    1
    2     1     3    1
    3     1     4    1
    4     1     5    1
    5     5     6    1
    6     5     7    1
    7     5     8    1
    8     8     9    1
    9     8    10    1
   10     8    11    1
   11    11    12    1
   12    11    13    1
   13    11    14    1
   14    14    15    1
   15    14    16    1
   16    14    17    1
   17    17    18    1
   18    17    19    1
   19    17    20    1
   20    20    21    1
   21    20    22    1
   22    20    23    1
@<TRIPOS>SUBSTRUCTURE
       1 MOL1            1 RESIDUE      1      MOL     
@<SCITEGIC>MOL_PROPERTY
VM2 Rank
SciTegic.value.IntegerValue
5

@<SCITEGIC>MOL_PROPERTY
Conf_Id
SciTegic.value.IntegerValue
548

@<SCITEGIC>MOL_PROPERTY
Probability
SciTegic.value.DoubleValue
4.69

@<SCITEGIC>MOL_PROPERTY
Sum Probability
SciTegic.value.DoubleValue
36.69

@<SCITEGIC>MOL_PROPERTY
Delta G
SciTegic.value.DoubleValue
0.607

@<SCITEGIC>MOL_PROPERTY
G
SciTegic.value.DoubleValue
38.523

@<SCITEGIC>MOL_PROPERTY
E
SciTegic.value.DoubleValue
10.893

@<SCITEGIC>MOL_PROPERTY
-TS
SciTegic.value.DoubleValue
27.630

@<SCITEGIC>MOL_PROPERTY
U+W
SciTegic.value.DoubleValue
-7.886

@<SCITEGIC>MOL_PROPERTY
U
SciTegic.value.DoubleValue
47.264

@<SCITEGIC>MOL_PROPERTY
W
SciTegic.value.DoubleValue
-55.151

@<SCITEGIC>MOL_PROPERTY
W(PB)
SciTegic.value.DoubleValue
-57.313

@<SCITEGIC>MOL_PROPERTY
W(SA)
SciTegic.value.DoubleValue
2.162

@<SCITEGIC>MOL_PROPERTY
Valence
SciTegic.value.DoubleValue
2.234

@<SCITEGIC>MOL_PROPERTY
Coulomb
SciTegic.value.DoubleValue
44.450

@<SCITEGIC>MOL_PROPERTY
VdW
SciTegic.value.DoubleValue
0.580

@<SCITEGIC>MOL_PROPERTY
VdW6
SciTegic.value.DoubleValue
-5.234

@<SCITEGIC>MOL_PROPERTY
VdW12
SciTegic.value.DoubleValue
5.814

@<SCITEGIC>MOL_PROPERTY
Bond
SciTegic.value.DoubleValue
0.148

@<SCITEGIC>MOL_PROPERTY
Angle
SciTegic.value.DoubleValue
0.630

@<SCITEGIC>MOL_PROPERTY
Pdih
SciTegic.value.DoubleValue
1.456

@<SCITEGIC>MOL_PROPERTY
Idih
SciTegic.value.DoubleValue
0.000

@<SCITEGIC>MOL_PROPERTY
Tether
SciTegic.value.DoubleValue
0.000

@<TRIPOS>MOLECULE
guest-2_vm2.mol2 : vm2 ligand conformer 6
          23          22           1
SMALL
USER_CHARGES
 
@<TRIPOS>ATOM
       1    N1      19.821289   18.865974   26.334145 N.4        1 MOL1        -0.5940
       2    H1      18.854262   18.587254   26.529205 H          1 MOL1         0.3649
       3    H2      20.108027   19.496271   27.090839 H          1 MOL1         0.3649
       4    H3      20.399770   18.023371   26.413210 H          1 MOL1         0.3649
       5    C1      19.957961   19.520351   24.974366 C.3        1 MOL1         0.0207
       6    H4      21.002437   19.817197   24.846136 H          1 MOL1         0.0950
       7    H5      19.341144   20.423135   24.970749 H          1 MOL1         0.0950
       8    C2      19.535152   18.599495   23.815984 C.3        1 MOL1        -0.1415
       9    H6      20.146253   17.687157   23.833069 H          1 MOL1         0.0976
      10    H7      18.490848   18.290810   23.958106 H          1 MOL1         0.0976
      11    C3      19.689241   19.302842   22.449266 C.3        1 MOL1        -0.1375
      12    H8      20.733989   19.616441   22.323177 H          1 MOL1         0.0976
      13    H9      19.077995   20.215937   22.436481 H          1 MOL1         0.0976
      14    C4      19.269287   18.382365   21.277977 C.3        1 MOL1        -0.1375
      15    H10     19.912868   17.492035   21.256795 H          1 MOL1         0.0976
      16    H11     18.247011   18.020277   21.454751 H          1 MOL1         0.0976
      17    C5      19.310285   19.082256   19.897923 C.3        1 MOL1        -0.1350
      18    H12     18.650984   19.961482   19.907205 H          1 MOL1         0.0976
      19    H13     18.898530   18.397677   19.143161 H          1 MOL1         0.0976
      20    C6      20.732784   19.503717   19.464338 C.3        1 MOL1        -0.2365
      21    H14     21.141516   20.280580   20.122244 H          1 MOL1         0.0987
      22    H15     20.718953   19.909532   18.444501 H          1 MOL1         0.0987
      23    H16     21.419059   18.647022   19.475131 H          1 MOL1         0.0987
@<TRIPOS>BOND
    1     1     2    1
    2     1     3    1
    3     1     4    1
    4     1     5    1
    5     5     6    1
    6     5     7    1
    7     5     8    1
    8     8     9    1
    9     8    10    1
   10     8    11    1
   11    11    12    1
   12    11    13    1
   13    11    14    1
   14    14    15    1
   15    14    16    1
   16    14    17    1
   17    17    18    1
   18    17    19    1
   19    17    20    1
   20    20    21    1
   21    20    22    1
   22    20    23    1
@<TRIPOS>SUBSTRUCTURE
       1 MOL1            1 RESIDUE      1      MOL     
@<SCITEGIC>MOL_PROPERTY
VM2 Rank
SciTegic.value.IntegerValue
6

@<SCITEGIC>MOL_PROPERTY
Conf_Id
SciTegic.value.IntegerValue
551

@<SCITEGIC>MOL_PROPERTY
Probability
SciTegic.value.DoubleValue
4.41

@<SCITEGIC>MOL_PROPERTY
Sum Probability
SciTegic.value.DoubleValue
41.10

@<SCITEGIC>MOL_PROPERTY
Delta G
SciTegic.value.DoubleValue
0.643

@<SCITEGIC>MOL_PROPERTY
G
SciTegic.value.DoubleValue
38.559

@<SCITEGIC>MOL_PROPERTY
E
SciTegic.value.DoubleValue
10.928

@<SCITEGIC>MOL_PROPERTY
-TS
SciTegic.value.DoubleValue
27.630

@<SCITEGIC>MOL_PROPERTY
U+W
SciTegic.value.DoubleValue
-7.851

@<SCITEGIC>MOL_PROPERTY
U
SciTegic.value.DoubleValue
47.264

@<SCITEGIC>MOL_PROPERTY
W
SciTegic.value.DoubleValue
-55.115

@<SCITEGIC>MOL_PROPERTY
W(PB)
SciTegic.value.DoubleValue
-57.280

@<SCITEGIC>MOL_PROPERTY
W(SA)
SciTegic.value.DoubleValue
2.165

@<SCITEGIC>MOL_PROPERTY
Valence
SciTegic.value.DoubleValue
2.234

@<SCITEGIC>MOL_PROPERTY
Coulomb
SciTegic.value.DoubleValue
44.451

@<SCITEGIC>MOL_PROPERTY
VdW
SciTegic.value.DoubleValue
0.580

@<SCITEGIC>MOL_PROPERTY
VdW6
SciTegic.value.DoubleValue
-5.234

@<SCITEGIC>MOL_PROPERTY
VdW12
SciTegic.value.DoubleValue
5.814

@<SCITEGIC>MOL_PROPERTY
Bond
SciTegic.value.DoubleValue
0.148

@<SCITEGIC>MOL_PROPERTY
Angle
SciTegic.value.DoubleValue
0.630

@<SCITEGIC>MOL_PROPERTY
Pdih
SciTegic.value.DoubleValue
1.457

@<SCITEGIC>MOL_PROPERTY
Idih
SciTegic.value.DoubleValue
0.000

@<SCITEGIC>MOL_PROPERTY
Tether
SciTegic.value.DoubleValue
0.000

@<TRIPOS>MOLECULE
guest-2_vm2.mol2 : vm2 ligand conformer 7
          23          22           1
SMALL
USER_CHARGES
 
@<TRIPOS>ATOM
       1    N1      19.399418   18.211738   26.066648 N.4        1 MOL1        -0.5940
       2    H1      18.647808   17.562461   25.812983 H          1 MOL1         0.3649
       3    H2      19.188149   18.558588   27.008530 H          1 MOL1         0.3649
       4    H3      20.261655   17.661950   26.138382 H          1 MOL1         0.3649
       5    C1      19.531421   19.342832   25.067053 C.3        1 MOL1         0.0207
       6    H4      20.326011   20.008814   25.414294 H          1 MOL1         0.0950
       7    H5      18.591648   19.901676   25.063624 H          1 MOL1         0.0950
       8    C2      19.849503   18.855760   23.642203 C.3        1 MOL1        -0.1415
       9    H6      20.785556   18.281679   23.653671 H          1 MOL1         0.0976
      10    H7      19.055278   18.174319   23.312452 H          1 MOL1         0.0976
      11    C3      19.977734   20.041738   22.657322 C.3        1 MOL1        -0.1375
      12    H8      20.719287   20.751856   23.049200 H          1 MOL1         0.0976
      13    H9      19.025083   20.587295   22.608159 H          1 MOL1         0.0976
      14    C4      20.408421   19.619755   21.230845 C.3        1 MOL1        -0.1375
      15    H10     20.587037   20.527832   20.638462 H          1 MOL1         0.0976
      16    H11     21.369458   19.089170   21.277882 H          1 MOL1         0.0976
      17    C5      19.363232   18.742252   20.501963 C.3        1 MOL1        -0.1350
      18    H12     18.388569   19.249982   20.500235 H          1 MOL1         0.0976
      19    H13     19.226775   17.792278   21.035484 H          1 MOL1         0.0976
      20    C6      19.786271   18.442925   19.047965 C.3        1 MOL1        -0.2365
      21    H14     19.035996   17.817610   18.546859 H          1 MOL1         0.0987
      22    H15     20.744701   17.908370   19.018056 H          1 MOL1         0.0987
      23    H16     19.893269   19.369351   18.468738 H          1 MOL1         0.0987
@<TRIPOS>BOND
    1     1     2    1
    2     1     3    1
    3     1     4    1
    4     1     5    1
    5     5     6    1
    6     5     7    1
    7     5     8    1
    8     8     9    1
    9     8    10    1
   10     8    11    1
   11    11    12    1
   12    11    13    1
   13    11    14    1
   14    14    15    1
   15    14    16    1
   16    14    17    1
   17    17    18    1
   18    17    19    1
   19    17    20    1
   20    20    21    1
   21    20    22    1
   22    20    23    1
@<TRIPOS>SUBSTRUCTURE
       1 MOL1            1 RESIDUE      1      MOL     
@<SCITEGIC>MOL_PROPERTY
VM2 Rank
SciTegic.value.IntegerValue
7

@<SCITEGIC>MOL_PROPERTY
Conf_Id
SciTegic.value.IntegerValue
679

@<SCITEGIC>MOL_PROPERTY
Probability
SciTegic.value.DoubleValue
3.82

@<SCITEGIC>MOL_PROPERTY
Sum Probability
SciTegic.value.DoubleValue
44.92

@<SCITEGIC>MOL_PROPERTY
Delta G
SciTegic.value.DoubleValue
0.728

@<SCITEGIC>MOL_PROPERTY
G
SciTegic.value.DoubleValue
38.645

@<SCITEGIC>MOL_PROPERTY
E
SciTegic.value.DoubleValue
11.025

@<SCITEGIC>MOL_PROPERTY
-TS
SciTegic.value.DoubleValue
27.619

@<SCITEGIC>MOL_PROPERTY
U+W
SciTegic.value.DoubleValue
-7.754

@<SCITEGIC>MOL_PROPERTY
U
SciTegic.value.DoubleValue
47.562

@<SCITEGIC>MOL_PROPERTY
W
SciTegic.value.DoubleValue
-55.316

@<SCITEGIC>MOL_PROPERTY
W(PB)
SciTegic.value.DoubleValue
-57.472

@<SCITEGIC>MOL_PROPERTY
W(SA)
SciTegic.value.DoubleValue
2.156

@<SCITEGIC>MOL_PROPERTY
Valence
SciTegic.value.DoubleValue
2.273

@<SCITEGIC>MOL_PROPERTY
Coulomb
SciTegic.value.DoubleValue
44.723

@<SCITEGIC>MOL_PROPERTY
VdW
SciTegic.value.DoubleValue
0.566

@<SCITEGIC>MOL_PROPERTY
VdW6
SciTegic.value.DoubleValue
-5.266

@<SCITEGIC>MOL_PROPERTY
VdW12
SciTegic.value.DoubleValue
5.832

@<SCITEGIC>MOL_PROPERTY
Bond
SciTegic.value.DoubleValue
0.151

@<SCITEGIC>MOL_PROPERTY
Angle
SciTegic.value.DoubleValue
0.657

@<SCITEGIC>MOL_PROPERTY
Pdih
SciTegic.value.DoubleValue
1.466

@<SCITEGIC>MOL_PROPERTY
Idih
SciTegic.value.DoubleValue
0.000

@<SCITEGIC>MOL_PROPERTY
Tether
SciTegic.value.DoubleValue
0.000

@<TRIPOS>MOLECULE
guest-2_vm2.mol2 : vm2 ligand conformer 8
          23          22           1
SMALL
USER_CHARGES
 
@<TRIPOS>ATOM
       1    N1      20.327543   18.597815   26.108906 N.4        1 MOL1        -0.5940
       2    H1      20.157181   18.961624   27.052674 H          1 MOL1         0.3649
       3    H2      21.334478   18.680243   25.935367 H          1 MOL1         0.3649
       4    H3      20.106135   17.597143   26.131200 H          1 MOL1         0.3649
       5    C1      19.511480   19.334499   25.066158 C.3        1 MOL1         0.0207
       6    H4      19.775530   20.394269   25.117700 H          1 MOL1         0.0950
       7    H5      18.455291   19.230320   25.329013 H          1 MOL1         0.0950
       8    C2      19.743723   18.811815   23.637358 C.3        1 MOL1        -0.1415
       9    H6      20.809245   18.904287   23.392400 H          1 MOL1         0.0976
      10    H7      19.492475   17.743665   23.594624 H          1 MOL1         0.0976
      11    C3      18.890286   19.589357   22.607770 C.3        1 MOL1        -0.1375
      12    H8      19.176386   20.650342   22.615060 H          1 MOL1         0.0976
      13    H9      17.836614   19.552498   22.917856 H          1 MOL1         0.0976
      14    C4      18.997425   19.032762   21.166550 C.3        1 MOL1        -0.1375
      15    H10     18.694965   17.976480   21.156019 H          1 MOL1         0.0976
      16    H11     18.275003   19.565944   20.533107 H          1 MOL1         0.0976
      17    C5      20.408863   19.177369   20.549599 C.3        1 MOL1        -0.1350
      18    H12     21.135952   18.586788   21.122549 H          1 MOL1         0.0976
      19    H13     20.733500   20.225740   20.606937 H          1 MOL1         0.0976
      20    C6      20.436681   18.713383   19.077659 C.3        1 MOL1        -0.2365
      21    H14     20.144922   17.658591   18.990936 H          1 MOL1         0.0987
      22    H15     21.444886   18.819746   18.656654 H          1 MOL1         0.0987
      23    H16     19.750453   19.309649   18.462211 H          1 MOL1         0.0987
@<TRIPOS>BOND
    1     1     2    1
    2     1     3    1
    3     1     4    1
    4     1     5    1
    5     5     6    1
    6     5     7    1
    7     5     8    1
    8     8     9    1
    9     8    10    1
   10     8    11    1
   11    11    12    1
   12    11    13    1
   13    11    14    1
   14    14    15    1
   15    14    16    1
   16    14    17    1
   17    17    18    1
   18    17    19    1
   19    17    20    1
   20    20    21    1
   21    20    22    1
   22    20    23    1
@<TRIPOS>SUBSTRUCTURE
       1 MOL1            1 RESIDUE      1      MOL     
@<SCITEGIC>MOL_PROPERTY
VM2 Rank
SciTegic.value.IntegerValue
8

@<SCITEGIC>MOL_PROPERTY
Conf_Id
SciTegic.value.IntegerValue
712

@<SCITEGIC>MOL_PROPERTY
Probability
SciTegic.value.DoubleValue
3.76

@<SCITEGIC>MOL_PROPERTY
Sum Probability
SciTegic.value.DoubleValue
48.68

@<SCITEGIC>MOL_PROPERTY
Delta G
SciTegic.value.DoubleValue
0.737

@<SCITEGIC>MOL_PROPERTY
G
SciTegic.value.DoubleValue
38.653

@<SCITEGIC>MOL_PROPERTY
E
SciTegic.value.DoubleValue
11.034

@<SCITEGIC>MOL_PROPERTY
-TS
SciTegic.value.DoubleValue
27.619

@<SCITEGIC>MOL_PROPERTY
U+W
SciTegic.value.DoubleValue
-7.745

@<SCITEGIC>MOL_PROPERTY
U
SciTegic.value.DoubleValue
47.562

@<SCITEGIC>MOL_PROPERTY
W
SciTegic.value.DoubleValue
-55.307

@<SCITEGIC>MOL_PROPERTY
W(PB)
SciTegic.value.DoubleValue
-57.451

@<SCITEGIC>MOL_PROPERTY
W(SA)
SciTegic.value.DoubleValue
2.144

@<SCITEGIC>MOL_PROPERTY
Valence
SciTegic.value.DoubleValue
2.273

@<SCITEGIC>MOL_PROPERTY
Coulomb
SciTegic.value.DoubleValue
44.723

@<SCITEGIC>MOL_PROPERTY
VdW
SciTegic.value.DoubleValue
0.566

@<SCITEGIC>MOL_PROPERTY
VdW6
SciTegic.value.DoubleValue
-5.266

@<SCITEGIC>MOL_PROPERTY
VdW12
SciTegic.value.DoubleValue
5.832

@<SCITEGIC>MOL_PROPERTY
Bond
SciTegic.value.DoubleValue
0.151

@<SCITEGIC>MOL_PROPERTY
Angle
SciTegic.value.DoubleValue
0.657

@<SCITEGIC>MOL_PROPERTY
Pdih
SciTegic.value.DoubleValue
1.466

@<SCITEGIC>MOL_PROPERTY
Idih
SciTegic.value.DoubleValue
0.000

@<SCITEGIC>MOL_PROPERTY
Tether
SciTegic.value.DoubleValue
0.000

@<TRIPOS>MOLECULE
guest-2_vm2.mol2 : vm2 ligand conformer 9
          23          22           1
SMALL
USER_CHARGES
 
@<TRIPOS>ATOM
       1    N1      19.890379   19.972442   25.596919 N.4        1 MOL1        -0.5940
       2    H1      20.201347   20.657758   24.901816 H          1 MOL1         0.3649
       3    H2      20.415130   20.159840   26.458019 H          1 MOL1         0.3649
       4    H3      18.905119   20.170663   25.798510 H          1 MOL1         0.3649
       5    C1      20.091727   18.549342   25.113764 C.3        1 MOL1         0.0207
       6    H4      19.777780   17.878632   25.918232 H          1 MOL1         0.0950
       7    H5      21.160674   18.397369   24.941486 H          1 MOL1         0.0950
       8    C2      19.306455   18.211540   23.831545 C.3        1 MOL1        -0.1415
       9    H6      19.434364   17.142052   23.617487 H          1 MOL1         0.0976
      10    H7      18.233952   18.369863   24.006525 H          1 MOL1         0.0976
      11    C3      19.772980   19.037488   22.609249 C.3        1 MOL1        -0.1375
      12    H8      20.853216   18.895949   22.472455 H          1 MOL1         0.0976
      13    H9      19.611057   20.107119   22.797483 H          1 MOL1         0.0976
      14    C4      19.020666   18.627491   21.320335 C.3        1 MOL1        -0.1375
      15    H10     19.223334   17.571932   21.092235 H          1 MOL1         0.0976
      16    H11     17.938782   18.703069   21.497028 H          1 MOL1         0.0976
      17    C5      19.379743   19.499056   20.092506 C.3        1 MOL1        -0.1350
      18    H12     19.156362   20.553536   20.306868 H          1 MOL1         0.0976
      19    H13     18.729700   19.211825   19.254180 H          1 MOL1         0.0976
      20    C6      20.854049   19.359641   19.649683 C.3        1 MOL1        -0.2365
      21    H14     21.032171   19.923353   18.724784 H          1 MOL1         0.0987
      22    H15     21.111075   18.309880   19.457442 H          1 MOL1         0.0987
      23    H16     21.542222   19.748863   20.410173 H          1 MOL1         0.0987
@<TRIPOS>BOND
    1     1     2    1
    2     1     3    1
    3     1     4    1
    4     1     5    1
    5     5     6    1
    6     5     7    1
    7     5     8    1
    8     8     9    1
    9     8    10    1
   10     8    11    1
   11    11    12    1
   12    11    13    1
   13    11    14    1
   14    14    15    1
   15    14    16    1
   16    14    17    1
   17    17    18    1
   18    17    19    1
   19    17    20    1
   20    20    21    1
   21    20    22    1
   22    20    23    1
@<TRIPOS>SUBSTRUCTURE
       1 MOL1            1 RESIDUE      1      MOL     
@<SCITEGIC>MOL_PROPERTY
VM2 Rank
SciTegic.value.IntegerValue
9

@<SCITEGIC>MOL_PROPERTY
Conf_Id
SciTegic.value.IntegerValue
555

@<SCITEGIC>MOL_PROPERTY
Probability
SciTegic.value.DoubleValue
2.96

@<SCITEGIC>MOL_PROPERTY
Sum Probability
SciTegic.value.DoubleValue
51.64

@<SCITEGIC>MOL_PROPERTY
Delta G
SciTegic.value.DoubleValue
0.881

@<SCITEGIC>MOL_PROPERTY
G
SciTegic.value.DoubleValue
38.797

@<SCITEGIC>MOL_PROPERTY
E
SciTegic.value.DoubleValue
11.062

@<SCITEGIC>MOL_PROPERTY
-TS
SciTegic.value.DoubleValue
27.734

@<SCITEGIC>MOL_PROPERTY
U+W
SciTegic.value.DoubleValue
-7.717

@<SCITEGIC>MOL_PROPERTY
U
SciTegic.value.DoubleValue
47.955

@<SCITEGIC>MOL_PROPERTY
W
SciTegic.value.DoubleValue
-55.672

@<SCITEGIC>MOL_PROPERTY
W(PB)
SciTegic.value.DoubleValue
-57.792

@<SCITEGIC>MOL_PROPERTY
W(SA)
SciTegic.value.DoubleValue
2.120

@<SCITEGIC>MOL_PROPERTY
Valence
SciTegic.value.DoubleValue
2.340

@<SCITEGIC>MOL_PROPERTY
Coulomb
SciTegic.value.DoubleValue
44.939

@<SCITEGIC>MOL_PROPERTY
VdW
SciTegic.value.DoubleValue
0.676

@<SCITEGIC>MOL_PROPERTY
VdW6
SciTegic.value.DoubleValue
-5.763

@<SCITEGIC>MOL_PROPERTY
VdW12
SciTegic.value.DoubleValue
6.440

@<SCITEGIC>MOL_PROPERTY
Bond
SciTegic.value.DoubleValue
0.168

@<SCITEGIC>MOL_PROPERTY
Angle
SciTegic.value.DoubleValue
0.673

@<SCITEGIC>MOL_PROPERTY
Pdih
SciTegic.value.DoubleValue
1.499

@<SCITEGIC>MOL_PROPERTY
Idih
SciTegic.value.DoubleValue
0.000

@<SCITEGIC>MOL_PROPERTY
Tether
SciTegic.value.DoubleValue
0.000

@<TRIPOS>MOLECULE
guest-2_vm2.mol2 : vm2 ligand conformer 10
          23          22           1
SMALL
USER_CHARGES
 
@<TRIPOS>ATOM
       1    N1      19.146853   17.899280   25.364768 N.4        1 MOL1        -0.5940
       2    H1      18.589145   17.550181   24.579554 H          1 MOL1         0.3649
       3    H2      18.588666   17.760098   26.213914 H          1 MOL1         0.3649
       4    H3      19.969630   17.293333   25.445671 H          1 MOL1         0.3649
       5    C1      19.533843   19.353494   25.178196 C.3        1 MOL1         0.0207
       6    H4      20.087242   19.665735   26.068050 H          1 MOL1         0.0950
       7    H5      18.615823   19.944815   25.123380 H          1 MOL1         0.0950
       8    C2      20.393369   19.612611   23.925576 C.3        1 MOL1        -0.1415
       9    H6      20.707417   20.664875   23.932376 H          1 MOL1         0.0976
      10    H7      21.310914   19.011645   23.979681 H          1 MOL1         0.0976
      11    C3      19.638814   19.311000   22.608876 C.3        1 MOL1        -0.1375
      12    H8      18.709483   19.896477   22.577581 H          1 MOL1         0.0976
      13    H9      19.351376   18.252413   22.586043 H          1 MOL1         0.0976
      14    C4      20.500080   19.642319   21.366324 C.3        1 MOL1        -0.1375
      15    H10     20.838108   20.685810   21.431355 H          1 MOL1         0.0976
      16    H11     21.407729   19.023049   21.368639 H          1 MOL1         0.0976
      17    C5      19.748857   19.452949   20.026178 C.3        1 MOL1        -0.1350
      18    H12     20.391083   19.809888   19.208872 H          1 MOL1         0.0976
      19    H13     18.851159   20.086733   20.010352 H          1 MOL1         0.0976
      20    C6      19.354184   17.985346   19.744081 C.3        1 MOL1        -0.2365
      21    H14     20.230671   17.325728   19.785215 H          1 MOL1         0.0987
      22    H15     18.911162   17.892383   18.744066 H          1 MOL1         0.0987
      23    H16     18.614215   17.620351   20.466965 H          1 MOL1         0.0987
@<TRIPOS>BOND
    1     1     2    1
    2     1     3    1
    3     1     4    1
    4     1     5    1
    5     5     6    1
    6     5     7    1
    7     5     8    1
    8     8     9    1
    9     8    10    1
   10     8    11    1
   11    11    12    1
   12    11    13    1
   13    11    14    1
   14    14    15    1
   15    14    16    1
   16    14    17    1
   17    17    18    1
   18    17    19    1
   19    17    20    1
   20    20    21    1
   21    20    22    1
   22    20    23    1
@<TRIPOS>SUBSTRUCTURE
       1 MOL1            1 RESIDUE      1      MOL     
@<SCITEGIC>MOL_PROPERTY
VM2 Rank
SciTegic.value.IntegerValue
10

@<SCITEGIC>MOL_PROPERTY
Conf_Id
SciTegic.value.IntegerValue
489

@<SCITEGIC>MOL_PROPERTY
Probability
SciTegic.value.DoubleValue
2.77

@<SCITEGIC>MOL_PROPERTY
Sum Probability
SciTegic.value.DoubleValue
54.41

@<SCITEGIC>MOL_PROPERTY
Delta G
SciTegic.value.DoubleValue
0.920

@<SCITEGIC>MOL_PROPERTY
G
SciTegic.value.DoubleValue
38.836

@<SCITEGIC>MOL_PROPERTY
E
SciTegic.value.DoubleValue
11.108

@<SCITEGIC>MOL_PROPERTY
-TS
SciTegic.value.DoubleValue
27.728

@<SCITEGIC>MOL_PROPERTY
U+W
SciTegic.value.DoubleValue
-7.671

@<SCITEGIC>MOL_PROPERTY
U
SciTegic.value.DoubleValue
48.083

@<SCITEGIC>MOL_PROPERTY
W
SciTegic.value.DoubleValue
-55.754

@<SCITEGIC>MOL_PROPERTY
W(PB)
SciTegic.value.DoubleValue
-57.893

@<SCITEGIC>MOL_PROPERTY
W(SA)
SciTegic.value.DoubleValue
2.138

@<SCITEGIC>MOL_PROPERTY
Valence
SciTegic.value.DoubleValue
2.338

@<SCITEGIC>MOL_PROPERTY
Coulomb
SciTegic.value.DoubleValue
45.069

@<SCITEGIC>MOL_PROPERTY
VdW
SciTegic.value.DoubleValue
0.676

@<SCITEGIC>MOL_PROPERTY
VdW6
SciTegic.value.DoubleValue
-5.772

@<SCITEGIC>MOL_PROPERTY
VdW12
SciTegic.value.DoubleValue
6.448

@<SCITEGIC>MOL_PROPERTY
Bond
SciTegic.value.DoubleValue
0.170

@<SCITEGIC>MOL_PROPERTY
Angle
SciTegic.value.DoubleValue
0.671

@<SCITEGIC>MOL_PROPERTY
Pdih
SciTegic.value.DoubleValue
1.498

@<SCITEGIC>MOL_PROPERTY
Idih
SciTegic.value.DoubleValue
0.000

@<SCITEGIC>MOL_PROPERTY
Tether
SciTegic.value.DoubleValue
0.000

@<TRIPOS>MOLECULE
guest-2_vm2.mol2 : vm2 ligand conformer 11
          23          22           1
SMALL
USER_CHARGES
 
@<TRIPOS>ATOM
       1    N1      20.490671   18.713010   25.675853 N.4        1 MOL1        -0.5940
       2    H1      21.157554   19.396238   25.304329 H          1 MOL1         0.3649
       3    H2      20.856589   17.781271   25.455490 H          1 MOL1         0.3649
       4    H3      20.504454   18.805717   26.697211 H          1 MOL1         0.3649
       5    C1      19.099004   18.920558   25.110790 C.3        1 MOL1         0.0207
       6    H4      18.759920   19.918365   25.402023 H          1 MOL1         0.0950
       7    H5      18.437764   18.186118   25.578695 H          1 MOL1         0.0950
       8    C2      19.023439   18.773706   23.578723 C.3        1 MOL1        -0.1415
       9    H6      19.362765   17.768736   23.297784 H          1 MOL1         0.0976
      10    H7      17.971066   18.847857   23.274091 H          1 MOL1         0.0976
      11    C3      19.850453   19.853013   22.836214 C.3        1 MOL1        -0.1375
      12    H8      20.918161   19.732099   23.063097 H          1 MOL1         0.0976
      13    H9      19.563815   20.844350   23.213975 H          1 MOL1         0.0976
      14    C4      19.649513   19.836131   21.300857 C.3        1 MOL1        -0.1375
      15    H10     18.585688   19.980073   21.066629 H          1 MOL1         0.0976
      16    H11     20.178522   20.697880   20.870804 H          1 MOL1         0.0976
      17    C5      20.162240   18.542725   20.624255 C.3        1 MOL1        -0.1350
      18    H12     19.593600   17.675122   20.984385 H          1 MOL1         0.0976
      19    H13     21.212632   18.371609   20.898361 H          1 MOL1         0.0976
      20    C6      20.040680   18.617856   19.087308 C.3        1 MOL1        -0.2365
      21    H14     18.996042   18.758982   18.780648 H          1 MOL1         0.0987
      22    H15     20.405705   17.692114   18.623855 H          1 MOL1         0.0987
      23    H16     20.630856   19.451268   18.684412 H          1 MOL1         0.0987
@<TRIPOS>BOND
    1     1     2    1
    2     1     3    1
    3     1     4    1
    4     1     5    1
    5     5     6    1
    6     5     7    1
    7     5     8    1
    8     8     9    1
    9     8    10    1
   10     8    11    1
   11    11    12    1
   12    11    13    1
   13    11    14    1
   14    14    15    1
   15    14    16    1
   16    14    17    1
   17    17    18    1
   18    17    19    1
   19    17    20    1
   20    20    21    1
   21    20    22    1
   22    20    23    1
@<TRIPOS>SUBSTRUCTURE
       1 MOL1            1 RESIDUE      1      MOL     
@<SCITEGIC>MOL_PROPERTY
VM2 Rank
SciTegic.value.IntegerValue
11

@<SCITEGIC>MOL_PROPERTY
Conf_Id
SciTegic.value.IntegerValue
282

@<SCITEGIC>MOL_PROPERTY
Probability
SciTegic.value.DoubleValue
2.66

@<SCITEGIC>MOL_PROPERTY
Sum Probability
SciTegic.value.DoubleValue
57.08

@<SCITEGIC>MOL_PROPERTY
Delta G
SciTegic.value.DoubleValue
0.943

@<SCITEGIC>MOL_PROPERTY
G
SciTegic.value.DoubleValue
38.859

@<SCITEGIC>MOL_PROPERTY
E
SciTegic.value.DoubleValue
11.127

@<SCITEGIC>MOL_PROPERTY
-TS
SciTegic.value.DoubleValue
27.732

@<SCITEGIC>MOL_PROPERTY
U+W
SciTegic.value.DoubleValue
-7.652

@<SCITEGIC>MOL_PROPERTY
U
SciTegic.value.DoubleValue
48.113

@<SCITEGIC>MOL_PROPERTY
W
SciTegic.value.DoubleValue
-55.765

@<SCITEGIC>MOL_PROPERTY
W(PB)
SciTegic.value.DoubleValue
-57.862

@<SCITEGIC>MOL_PROPERTY
W(SA)
SciTegic.value.DoubleValue
2.097

@<SCITEGIC>MOL_PROPERTY
Valence
SciTegic.value.DoubleValue
2.372

@<SCITEGIC>MOL_PROPERTY
Coulomb
SciTegic.value.DoubleValue
45.091

@<SCITEGIC>MOL_PROPERTY
VdW
SciTegic.value.DoubleValue
0.651

@<SCITEGIC>MOL_PROPERTY
VdW6
SciTegic.value.DoubleValue
-5.797

@<SCITEGIC>MOL_PROPERTY
VdW12
SciTegic.value.DoubleValue
6.448

@<SCITEGIC>MOL_PROPERTY
Bond
SciTegic.value.DoubleValue
0.172

@<SCITEGIC>MOL_PROPERTY
Angle
SciTegic.value.DoubleValue
0.675

@<SCITEGIC>MOL_PROPERTY
Pdih
SciTegic.value.DoubleValue
1.524

@<SCITEGIC>MOL_PROPERTY
Idih
SciTegic.value.DoubleValue
0.000

@<SCITEGIC>MOL_PROPERTY
Tether
SciTegic.value.DoubleValue
0.000

@<TRIPOS>MOLECULE
guest-2_vm2.mol2 : vm2 ligand conformer 12
          23          22           1
SMALL
USER_CHARGES
 
@<TRIPOS>ATOM
       1    N1      18.999281   18.035499   25.160377 N.4        1 MOL1        -0.5940
       2    H1      18.430938   17.852377   24.327882 H          1 MOL1         0.3649
       3    H2      18.435424   18.613615   25.791583 H          1 MOL1         0.3649
       4    H3      19.145215   17.135215   25.629458 H          1 MOL1         0.3649
       5    C1      20.312223   18.705284   24.805470 C.3        1 MOL1         0.0207
       6    H4      20.875053   18.027180   24.158899 H          1 MOL1         0.0950
       7    H5      20.878670   18.838429   25.731183 H          1 MOL1         0.0950
       8    C2      20.142957   20.070913   24.108788 C.3        1 MOL1        -0.1415
       9    H6      19.616823   20.756752   24.786001 H          1 MOL1         0.0976
      10    H7      21.136992   20.507345   23.943574 H          1 MOL1         0.0976
      11    C3      19.384981   20.001985   22.759136 C.3        1 MOL1        -0.1375
      12    H8      19.295084   21.020602   22.356999 H          1 MOL1         0.0976
      13    H9      18.358494   19.648368   22.924585 H          1 MOL1         0.0976
      14    C4      20.085930   19.103724   21.711720 C.3        1 MOL1        -0.1375
      15    H10     21.119910   19.446492   21.567623 H          1 MOL1         0.0976
      16    H11     20.141783   18.070462   22.079331 H          1 MOL1         0.0976
      17    C5      19.345874   19.118777   20.355729 C.3        1 MOL1        -0.1350
      18    H12     19.292515   20.147685   19.973039 H          1 MOL1         0.0976
      19    H13     18.310147   18.778192   20.494253 H          1 MOL1         0.0976
      20    C6      20.044754   18.220818   19.312781 C.3        1 MOL1        -0.2365
      21    H14     21.073163   18.557544   19.127817 H          1 MOL1         0.0987
      22    H15     19.505452   18.244929   18.356954 H          1 MOL1         0.0987
      23    H16     20.082445   17.177389   19.651972 H          1 MOL1         0.0987
@<TRIPOS>BOND
    1     1     2    1
    2     1     3    1
    3     1     4    1
    4     1     5    1
    5     5     6    1
    6     5     7    1
    7     5     8    1
    8     8     9    1
    9     8    10    1
   10     8    11    1
   11    11    12    1
   12    11    13    1
   13    11    14    1
   14    14    15    1
   15    14    16    1
   16    14    17    1
   17    17    18    1
   18    17    19    1
   19    17    20    1
   20    20    21    1
   21    20    22    1
   22    20    23    1
@<TRIPOS>SUBSTRUCTURE
       1 MOL1            1 RESIDUE      1      MOL     
@<SCITEGIC>MOL_PROPERTY
VM2 Rank
SciTegic.value.IntegerValue
12

@<SCITEGIC>MOL_PROPERTY
Conf_Id
SciTegic.value.IntegerValue
288

@<SCITEGIC>MOL_PROPERTY
Probability
SciTegic.value.DoubleValue
2.61

@<SCITEGIC>MOL_PROPERTY
Sum Probability
SciTegic.value.DoubleValue
59.69

@<SCITEGIC>MOL_PROPERTY
Delta G
SciTegic.value.DoubleValue
0.955

@<SCITEGIC>MOL_PROPERTY
G
SciTegic.value.DoubleValue
38.871

@<SCITEGIC>MOL_PROPERTY
E
SciTegic.value.DoubleValue
11.067

@<SCITEGIC>MOL_PROPERTY
-TS
SciTegic.value.DoubleValue
27.803

@<SCITEGIC>MOL_PROPERTY
U+W
SciTegic.value.DoubleValue
-7.712

@<SCITEGIC>MOL_PROPERTY
U
SciTegic.value.DoubleValue
48.052

@<SCITEGIC>MOL_PROPERTY
W
SciTegic.value.DoubleValue
-55.763

@<SCITEGIC>MOL_PROPERTY
W(PB)
SciTegic.value.DoubleValue
-57.866

@<SCITEGIC>MOL_PROPERTY
W(SA)
SciTegic.value.DoubleValue
2.103

@<SCITEGIC>MOL_PROPERTY
Valence
SciTegic.value.DoubleValue
2.122

@<SCITEGIC>MOL_PROPERTY
Coulomb
SciTegic.value.DoubleValue
45.428

@<SCITEGIC>MOL_PROPERTY
VdW
SciTegic.value.DoubleValue
0.502

@<SCITEGIC>MOL_PROPERTY
VdW6
SciTegic.value.DoubleValue
-5.941

@<SCITEGIC>MOL_PROPERTY
VdW12
SciTegic.value.DoubleValue
6.443

@<SCITEGIC>MOL_PROPERTY
Bond
SciTegic.value.DoubleValue
0.160

@<SCITEGIC>MOL_PROPERTY
Angle
SciTegic.value.DoubleValue
0.629

@<SCITEGIC>MOL_PROPERTY
Pdih
SciTegic.value.DoubleValue
1.333

@<SCITEGIC>MOL_PROPERTY
Idih
SciTegic.value.DoubleValue
0.000

@<SCITEGIC>MOL_PROPERTY
Tether
SciTegic.value.DoubleValue
0.000

@<TRIPOS>MOLECULE
guest-2_vm2.mol2 : vm2 ligand conformer 13
          23          22           1
SMALL
USER_CHARGES
 
@<TRIPOS>ATOM
       1    N1      18.777773   19.516017   25.546274 N.4        1 MOL1        -0.5940
       2    H1      18.130877   19.808265   24.807596 H          1 MOL1         0.3649
       3    H2      19.321469   20.341601   25.817338 H          1 MOL1         0.3649
       4    H3      18.207534   19.254188   26.357599 H          1 MOL1         0.3649
       5    C1      19.670380   18.376510   25.094637 C.3        1 MOL1         0.0207
       6    H4      19.032665   17.524263   24.844801 H          1 MOL1         0.0950
       7    H5      20.300630   18.093279   25.942073 H          1 MOL1         0.0950
       8    C2      20.563476   18.727253   23.888731 C.3        1 MOL1        -0.1415
       9    H6      21.199059   19.586420   24.141346 H          1 MOL1         0.0976
      10    H7      21.239293   17.882560   23.699649 H          1 MOL1         0.0976
      11    C3      19.748722   19.027406   22.608134 C.3        1 MOL1        -0.1375
      12    H8      19.098847   19.896808   22.774156 H          1 MOL1         0.0976
      13    H9      19.093000   18.173514   22.392370 H          1 MOL1         0.0976
      14    C4      20.669597   19.303984   21.395339 C.3        1 MOL1        -0.1375
      15    H10     21.369713   20.110699   21.653130 H          1 MOL1         0.0976
      16    H11     21.283746   18.417266   21.185905 H          1 MOL1         0.0976
      17    C5      19.899449   19.712313   20.116174 C.3        1 MOL1        -0.1350
      18    H12     20.626739   19.990235   19.340510 H          1 MOL1         0.0976
      19    H13     19.301820   20.613232   20.313565 H          1 MOL1         0.0976
      20    C6      18.986603   18.593516   19.564711 C.3        1 MOL1        -0.2365
      21    H14     19.555361   17.671681   19.386528 H          1 MOL1         0.0987
      22    H15     18.536954   18.899774   18.611318 H          1 MOL1         0.0987
      23    H16     18.166869   18.363961   20.256637 H          1 MOL1         0.0987
@<TRIPOS>BOND
    1     1     2    1
    2     1     3    1
    3     1     4    1
    4     1     5    1
    5     5     6    1
    6     5     7    1
    7     5     8    1
    8     8     9    1
    9     8    10    1
   10     8    11    1
   11    11    12    1
   12    11    13    1
   13    11    14    1
   14    14    15    1
   15    14    16    1
   16    14    17    1
   17    17    18    1
   18    17    19    1
   19    17    20    1
   20    20    21    1
   21    20    22    1
   22    20    23    1
@<TRIPOS>SUBSTRUCTURE
       1 MOL1            1 RESIDUE      1      MOL     
@<SCITEGIC>MOL_PROPERTY
VM2 Rank
SciTegic.value.IntegerValue
13

@<SCITEGIC>MOL_PROPERTY
Conf_Id
SciTegic.value.IntegerValue
657

@<SCITEGIC>MOL_PROPERTY
Probability
SciTegic.value.DoubleValue
2.61

@<SCITEGIC>MOL_PROPERTY
Sum Probability
SciTegic.value.DoubleValue
62.30

@<SCITEGIC>MOL_PROPERTY
Delta G
SciTegic.value.DoubleValue
0.955

@<SCITEGIC>MOL_PROPERTY
G
SciTegic.value.DoubleValue
38.871

@<SCITEGIC>MOL_PROPERTY
E
SciTegic.value.DoubleValue
11.137

@<SCITEGIC>MOL_PROPERTY
-TS
SciTegic.value.DoubleValue
27.734

@<SCITEGIC>MOL_PROPERTY
U+W
SciTegic.value.DoubleValue
-7.642

@<SCITEGIC>MOL_PROPERTY
U
SciTegic.value.DoubleValue
47.955

@<SCITEGIC>MOL_PROPERTY
W
SciTegic.value.DoubleValue
-55.597

@<SCITEGIC>MOL_PROPERTY
W(PB)
SciTegic.value.DoubleValue
-57.737

@<SCITEGIC>MOL_PROPERTY
W(SA)
SciTegic.value.DoubleValue
2.140

@<SCITEGIC>MOL_PROPERTY
Valence
SciTegic.value.DoubleValue
2.340

@<SCITEGIC>MOL_PROPERTY
Coulomb
SciTegic.value.DoubleValue
44.939

@<SCITEGIC>MOL_PROPERTY
VdW
SciTegic.value.DoubleValue
0.676

@<SCITEGIC>MOL_PROPERTY
VdW6
SciTegic.value.DoubleValue
-5.763

@<SCITEGIC>MOL_PROPERTY
VdW12
SciTegic.value.DoubleValue
6.440

@<SCITEGIC>MOL_PROPERTY
Bond
SciTegic.value.DoubleValue
0.168

@<SCITEGIC>MOL_PROPERTY
Angle
SciTegic.value.DoubleValue
0.673

@<SCITEGIC>MOL_PROPERTY
Pdih
SciTegic.value.DoubleValue
1.499

@<SCITEGIC>MOL_PROPERTY
Idih
SciTegic.value.DoubleValue
0.000

@<SCITEGIC>MOL_PROPERTY
Tether
SciTegic.value.DoubleValue
0.000

@<TRIPOS>MOLECULE
guest-2_vm2.mol2 : vm2 ligand conformer 14
          23          22           1
SMALL
USER_CHARGES
 
@<TRIPOS>ATOM
       1    N1      20.803417   18.786241   25.242685 N.4        1 MOL1        -0.5940
       2    H1      21.396572   19.086362   24.463139 H          1 MOL1         0.3649
       3    H2      21.302102   18.032774   25.727914 H          1 MOL1         0.3649
       4    H3      20.740764   19.572957   25.896693 H          1 MOL1         0.3649
       5    C1      19.435239   18.340378   24.765530 C.3        1 MOL1         0.0207
       6    H4      18.871579   18.003323   25.639724 H          1 MOL1         0.0950
       7    H5      19.570603   17.484371   24.099508 H          1 MOL1         0.0950
       8    C2      18.641057   19.445948   24.040308 C.3        1 MOL1        -0.1415
       9    H6      17.647217   19.055198   23.784440 H          1 MOL1         0.0976
      10    H7      18.472066   20.280417   24.733786 H          1 MOL1         0.0976
      11    C3      19.326569   19.977637   22.756476 C.3        1 MOL1        -0.1375
      12    H8      20.284561   20.449702   23.012402 H          1 MOL1         0.0976
      13    H9      18.699590   20.772798   22.329871 H          1 MOL1         0.0976
      14    C4      19.551911   18.881513   21.687360 C.3        1 MOL1        -0.1375
      15    H10     20.215837   18.101245   22.082674 H          1 MOL1         0.0976
      16    H11     18.594679   18.395801   21.452499 H          1 MOL1         0.0976
      17    C5      20.165833   19.459939   20.393086 C.3        1 MOL1        -0.1350
      18    H12     21.123206   19.948560   20.622440 H          1 MOL1         0.0976
      19    H13     19.504434   20.235893   19.982725 H          1 MOL1         0.0976
      20    C6      20.391973   18.365345   19.328555 C.3        1 MOL1        -0.2365
      21    H14     21.078020   17.591643   19.697254 H          1 MOL1         0.0987
      22    H15     20.827546   18.795078   18.417160 H          1 MOL1         0.0987
      23    H16     19.446067   17.880687   19.053620 H          1 MOL1         0.0987
@<TRIPOS>BOND
    1     1     2    1
    2     1     3    1
    3     1     4    1
    4     1     5    1
    5     5     6    1
    6     5     7    1
    7     5     8    1
    8     8     9    1
    9     8    10    1
   10     8    11    1
   11    11    12    1
   12    11    13    1
   13    11    14    1
   14    14    15    1
   15    14    16    1
   16    14    17    1
   17    17    18    1
   18    17    19    1
   19    17    20    1
   20    20    21    1
   21    20    22    1
   22    20    23    1
@<TRIPOS>SUBSTRUCTURE
       1 MOL1            1 RESIDUE      1      MOL     
@<SCITEGIC>MOL_PROPERTY
VM2 Rank
SciTegic.value.IntegerValue
14

@<SCITEGIC>MOL_PROPERTY
Conf_Id
SciTegic.value.IntegerValue
700

@<SCITEGIC>MOL_PROPERTY
Probability
SciTegic.value.DoubleValue
2.60

@<SCITEGIC>MOL_PROPERTY
Sum Probability
SciTegic.value.DoubleValue
64.90

@<SCITEGIC>MOL_PROPERTY
Delta G
SciTegic.value.DoubleValue
0.958

@<SCITEGIC>MOL_PROPERTY
G
SciTegic.value.DoubleValue
38.874

@<SCITEGIC>MOL_PROPERTY
E
SciTegic.value.DoubleValue
11.071

@<SCITEGIC>MOL_PROPERTY
-TS
SciTegic.value.DoubleValue
27.803

@<SCITEGIC>MOL_PROPERTY
U+W
SciTegic.value.DoubleValue
-7.708

@<SCITEGIC>MOL_PROPERTY
U
SciTegic.value.DoubleValue
48.051

@<SCITEGIC>MOL_PROPERTY
W
SciTegic.value.DoubleValue
-55.760

@<SCITEGIC>MOL_PROPERTY
W(PB)
SciTegic.value.DoubleValue
-57.854

@<SCITEGIC>MOL_PROPERTY
W(SA)
SciTegic.value.DoubleValue
2.094

@<SCITEGIC>MOL_PROPERTY
Valence
SciTegic.value.DoubleValue
2.122

@<SCITEGIC>MOL_PROPERTY
Coulomb
SciTegic.value.DoubleValue
45.428

@<SCITEGIC>MOL_PROPERTY
VdW
SciTegic.value.DoubleValue
0.502

@<SCITEGIC>MOL_PROPERTY
VdW6
SciTegic.value.DoubleValue
-5.941

@<SCITEGIC>MOL_PROPERTY
VdW12
SciTegic.value.DoubleValue
6.443

@<SCITEGIC>MOL_PROPERTY
Bond
SciTegic.value.DoubleValue
0.160

@<SCITEGIC>MOL_PROPERTY
Angle
SciTegic.value.DoubleValue
0.629

@<SCITEGIC>MOL_PROPERTY
Pdih
SciTegic.value.DoubleValue
1.333

@<SCITEGIC>MOL_PROPERTY
Idih
SciTegic.value.DoubleValue
0.000

@<SCITEGIC>MOL_PROPERTY
Tether
SciTegic.value.DoubleValue
0.000

@<TRIPOS>MOLECULE
guest-2_vm2.mol2 : vm2 ligand conformer 15
          23          22           1
SMALL
USER_CHARGES
 
@<TRIPOS>ATOM
       1    N1      20.780565   18.579199   25.439171 N.4        1 MOL1        -0.5940
       2    H1      20.626149   17.566519   25.475420 H          1 MOL1         0.3649
       3    H2      21.204942   18.848883   26.333133 H          1 MOL1         0.3649
       4    H3      21.480043   18.753455   24.711273 H          1 MOL1         0.3649
       5    C1      19.493519   19.336670   25.176379 C.3        1 MOL1         0.0207
       6    H4      19.723112   20.405644   25.173955 H          1 MOL1         0.0950
       7    H5      18.815053   19.136124   26.010075 H          1 MOL1         0.0950
       8    C2      18.804027   18.951184   23.853131 C.3        1 MOL1        -0.1415
       9    H6      18.581451   17.875809   23.855278 H          1 MOL1         0.0976
      10    H7      17.837962   19.470787   23.801537 H          1 MOL1         0.0976
      11    C3      19.649354   19.315233   22.609380 C.3        1 MOL1        -0.1375
      12    H8      20.602367   18.772661   22.643039 H          1 MOL1         0.0976
      13    H9      19.889600   20.387246   22.631485 H          1 MOL1         0.0976
      14    C4      18.906612   18.979413   21.293689 C.3        1 MOL1        -0.1375
      15    H10     18.707757   17.899850   21.245469 H          1 MOL1         0.0976
      16    H11     17.925504   19.474152   21.298637 H          1 MOL1         0.0976
      17    C5      19.671967   19.421050   20.022714 C.3        1 MOL1        -0.1350
      18    H12     19.854601   20.504246   20.056232 H          1 MOL1         0.0976
      19    H13     19.031863   19.244619   19.146936 H          1 MOL1         0.0976
      20    C6      21.009956   18.674251   19.819537 C.3        1 MOL1        -0.2365
      21    H14     20.858537   17.587026   19.813710 H          1 MOL1         0.0987
      22    H15     21.731694   18.917250   20.609083 H          1 MOL1         0.0987
      23    H16     21.464339   18.954695   18.860461 H          1 MOL1         0.0987
@<TRIPOS>BOND
    1     1     2    1
    2     1     3    1
    3     1     4    1
    4     1     5    1
    5     5     6    1
    6     5     7    1
    7     5     8    1
    8     8     9    1
    9     8    10    1
   10     8    11    1
   11    11    12    1
   12    11    13    1
   13    11    14    1
   14    14    15    1
   15    14    16    1
   16    14    17    1
   17    17    18    1
   18    17    19    1
   19    17    20    1
   20    20    21    1
   21    20    22    1
   22    20    23    1
@<TRIPOS>SUBSTRUCTURE
       1 MOL1            1 RESIDUE      1      MOL     
@<SCITEGIC>MOL_PROPERTY
VM2 Rank
SciTegic.value.IntegerValue
15

@<SCITEGIC>MOL_PROPERTY
Conf_Id
SciTegic.value.IntegerValue
190

@<SCITEGIC>MOL_PROPERTY
Probability
SciTegic.value.DoubleValue
2.57

@<SCITEGIC>MOL_PROPERTY
Sum Probability
SciTegic.value.DoubleValue
67.47

@<SCITEGIC>MOL_PROPERTY
Delta G
SciTegic.value.DoubleValue
0.965

@<SCITEGIC>MOL_PROPERTY
G
SciTegic.value.DoubleValue
38.881

@<SCITEGIC>MOL_PROPERTY
E
SciTegic.value.DoubleValue
11.153

@<SCITEGIC>MOL_PROPERTY
-TS
SciTegic.value.DoubleValue
27.728

@<SCITEGIC>MOL_PROPERTY
U+W
SciTegic.value.DoubleValue
-7.626

@<SCITEGIC>MOL_PROPERTY
U
SciTegic.value.DoubleValue
48.083

@<SCITEGIC>MOL_PROPERTY
W
SciTegic.value.DoubleValue
-55.710

@<SCITEGIC>MOL_PROPERTY
W(PB)
SciTegic.value.DoubleValue
-57.839

@<SCITEGIC>MOL_PROPERTY
W(SA)
SciTegic.value.DoubleValue
2.130

@<SCITEGIC>MOL_PROPERTY
Valence
SciTegic.value.DoubleValue
2.338

@<SCITEGIC>MOL_PROPERTY
Coulomb
SciTegic.value.DoubleValue
45.069

@<SCITEGIC>MOL_PROPERTY
VdW
SciTegic.value.DoubleValue
0.676

@<SCITEGIC>MOL_PROPERTY
VdW6
SciTegic.value.DoubleValue
-5.773

@<SCITEGIC>MOL_PROPERTY
VdW12
SciTegic.value.DoubleValue
6.449

@<SCITEGIC>MOL_PROPERTY
Bond
SciTegic.value.DoubleValue
0.170

@<SCITEGIC>MOL_PROPERTY
Angle
SciTegic.value.DoubleValue
0.671

@<SCITEGIC>MOL_PROPERTY
Pdih
SciTegic.value.DoubleValue
1.498

@<SCITEGIC>MOL_PROPERTY
Idih
SciTegic.value.DoubleValue
0.000

@<SCITEGIC>MOL_PROPERTY
Tether
SciTegic.value.DoubleValue
0.000

@<TRIPOS>MOLECULE
guest-2_vm2.mol2 : vm2 ligand conformer 16
          23          22           1
SMALL
USER_CHARGES
 
@<TRIPOS>ATOM
       1    N1      19.238652   18.190813   25.618934 N.4        1 MOL1        -0.5940
       2    H1      19.084195   18.213353   26.632636 H          1 MOL1         0.3649
       3    H2      19.660311   17.282323   25.401119 H          1 MOL1         0.3649
       4    H3      18.315539   18.210784   25.175055 H          1 MOL1         0.3649
       5    C1      20.110105   19.342398   25.156839 C.3        1 MOL1         0.0207
       6    H4      21.058111   19.279296   25.698023 H          1 MOL1         0.0950
       7    H5      19.617267   20.276085   25.441011 H          1 MOL1         0.0950
       8    C2      20.385854   19.341996   23.640770 C.3        1 MOL1        -0.1415
       9    H6      21.094038   20.150609   23.416249 H          1 MOL1         0.0976
      10    H7      20.882855   18.402785   23.367075 H          1 MOL1         0.0976
      11    C3      19.098330   19.539080   22.801954 C.3        1 MOL1        -0.1375
      12    H8      18.566493   20.428090   23.168593 H          1 MOL1         0.0976
      13    H9      18.418678   18.689087   22.949198 H          1 MOL1         0.0976
      14    C4      19.369977   19.719470   21.288134 C.3        1 MOL1        -0.1375
      15    H10     18.421314   19.964570   20.790769 H          1 MOL1         0.0976
      16    H11     20.031013   20.583252   21.132531 H          1 MOL1         0.0976
      17    C5      19.981121   18.467172   20.615950 C.3        1 MOL1        -0.1350
      18    H12     19.345714   17.592486   20.813231 H          1 MOL1         0.0976
      19    H13     20.967129   18.248372   21.046875 H          1 MOL1         0.0976
      20    C6      20.131961   18.656072   19.091419 C.3        1 MOL1        -0.2365
      21    H14     20.787165   19.506604   18.862222 H          1 MOL1         0.0987
      22    H15     19.158451   18.836940   18.617315 H          1 MOL1         0.0987
      23    H16     20.569119   17.760460   18.631198 H          1 MOL1         0.0987
@<TRIPOS>BOND
    1     1     2    1
    2     1     3    1
    3     1     4    1
    4     1     5    1
    5     5     6    1
    6     5     7    1
    7     5     8    1
    8     8     9    1
    9     8    10    1
   10     8    11    1
   11    11    12    1
   12    11    13    1
   13    11    14    1
   14    14    15    1
   15    14    16    1
   16    14    17    1
   17    17    18    1
   18    17    19    1
   19    17    20    1
   20    20    21    1
   21    20    22    1
   22    20    23    1
@<TRIPOS>SUBSTRUCTURE
       1 MOL1            1 RESIDUE      1      MOL     
@<SCITEGIC>MOL_PROPERTY
VM2 Rank
SciTegic.value.IntegerValue
16

@<SCITEGIC>MOL_PROPERTY
Conf_Id
SciTegic.value.IntegerValue
354

@<SCITEGIC>MOL_PROPERTY
Probability
SciTegic.value.DoubleValue
2.43

@<SCITEGIC>MOL_PROPERTY
Sum Probability
SciTegic.value.DoubleValue
69.90

@<SCITEGIC>MOL_PROPERTY
Delta G
SciTegic.value.DoubleValue
0.999

@<SCITEGIC>MOL_PROPERTY
G
SciTegic.value.DoubleValue
38.915

@<SCITEGIC>MOL_PROPERTY
E
SciTegic.value.DoubleValue
11.183

@<SCITEGIC>MOL_PROPERTY
-TS
SciTegic.value.DoubleValue
27.732

@<SCITEGIC>MOL_PROPERTY
U+W
SciTegic.value.DoubleValue
-7.596

@<SCITEGIC>MOL_PROPERTY
U
SciTegic.value.DoubleValue
48.113

@<SCITEGIC>MOL_PROPERTY
W
SciTegic.value.DoubleValue
-55.709

@<SCITEGIC>MOL_PROPERTY
W(PB)
SciTegic.value.DoubleValue
-57.827

@<SCITEGIC>MOL_PROPERTY
W(SA)
SciTegic.value.DoubleValue
2.118

@<SCITEGIC>MOL_PROPERTY
Valence
SciTegic.value.DoubleValue
2.372

@<SCITEGIC>MOL_PROPERTY
Coulomb
SciTegic.value.DoubleValue
45.091

@<SCITEGIC>MOL_PROPERTY
VdW
SciTegic.value.DoubleValue
0.651

@<SCITEGIC>MOL_PROPERTY
VdW6
SciTegic.value.DoubleValue
-5.797

@<SCITEGIC>MOL_PROPERTY
VdW12
SciTegic.value.DoubleValue
6.448

@<SCITEGIC>MOL_PROPERTY
Bond
SciTegic.value.DoubleValue
0.172

@<SCITEGIC>MOL_PROPERTY
Angle
SciTegic.value.DoubleValue
0.675

@<SCITEGIC>MOL_PROPERTY
Pdih
SciTegic.value.DoubleValue
1.524

@<SCITEGIC>MOL_PROPERTY
Idih
SciTegic.value.DoubleValue
0.000

@<SCITEGIC>MOL_PROPERTY
Tether
SciTegic.value.DoubleValue
0.000

@<TRIPOS>MOLECULE
guest-2_vm2.mol2 : vm2 ligand conformer 17
          23          22           1
SMALL
USER_CHARGES
 
@<TRIPOS>ATOM
       1    N1      19.467001   18.529818   25.910460 N.4        1 MOL1        -0.5940
       2    H1      18.644440   18.057058   25.523994 H          1 MOL1         0.3649
       3    H2      19.226398   18.816211   26.865480 H          1 MOL1         0.3649
       4    H3      20.211118   17.829082   25.987447 H          1 MOL1         0.3649
       5    C1      19.890484   19.710868   25.058820 C.3        1 MOL1         0.0207
       6    H4      20.741387   20.186815   25.553817 H          1 MOL1         0.0950
       7    H5      19.065086   20.427577   25.037042 H          1 MOL1         0.0950
       8    C2      20.285969   19.331002   23.618481 C.3        1 MOL1        -0.1415
       9    H6      20.685438   20.228481   23.130287 H          1 MOL1         0.0976
      10    H7      21.102301   18.597037   23.644432 H          1 MOL1         0.0976
      11    C3      19.094977   18.773079   22.799104 C.3        1 MOL1        -0.1375
      12    H8      18.292391   19.522355   22.755401 H          1 MOL1         0.0976
      13    H9      18.674244   17.900462   23.315928 H          1 MOL1         0.0976
      14    C4      19.480158   18.341845   21.362310 C.3        1 MOL1        -0.1375
      15    H10     20.278720   17.588343   21.405274 H          1 MOL1         0.0976
      16    H11     18.613280   17.845349   20.904662 H          1 MOL1         0.0976
      17    C5      19.919558   19.517212   20.457095 C.3        1 MOL1        -0.1350
      18    H12     20.834735   19.978742   20.850747 H          1 MOL1         0.0976
      19    H13     19.144073   20.295911   20.457076 H          1 MOL1         0.0976
      20    C6      20.177852   19.053176   19.007730 C.3        1 MOL1        -0.2365
      21    H14     20.491283   19.897684   18.380349 H          1 MOL1         0.0987
      22    H15     19.271358   18.622058   18.563190 H          1 MOL1         0.0987
      23    H16     20.970431   18.294389   18.971788 H          1 MOL1         0.0987
@<TRIPOS>BOND
    1     1     2    1
    2     1     3    1
    3     1     4    1
    4     1     5    1
    5     5     6    1
    6     5     7    1
    7     5     8    1
    8     8     9    1
    9     8    10    1
   10     8    11    1
   11    11    12    1
   12    11    13    1
   13    11    14    1
   14    14    15    1
   15    14    16    1
   16    14    17    1
   17    17    18    1
   18    17    19    1
   19    17    20    1
   20    20    21    1
   21    20    22    1
   22    20    23    1
@<TRIPOS>SUBSTRUCTURE
       1 MOL1            1 RESIDUE      1      MOL     
@<SCITEGIC>MOL_PROPERTY
VM2 Rank
SciTegic.value.IntegerValue
17

@<SCITEGIC>MOL_PROPERTY
Conf_Id
SciTegic.value.IntegerValue
561

@<SCITEGIC>MOL_PROPERTY
Probability
SciTegic.value.DoubleValue
2.14

@<SCITEGIC>MOL_PROPERTY
Sum Probability
SciTegic.value.DoubleValue
72.03

@<SCITEGIC>MOL_PROPERTY
Delta G
SciTegic.value.DoubleValue
1.074

@<SCITEGIC>MOL_PROPERTY
G
SciTegic.value.DoubleValue
38.990

@<SCITEGIC>MOL_PROPERTY
E
SciTegic.value.DoubleValue
11.291

@<SCITEGIC>MOL_PROPERTY
-TS
SciTegic.value.DoubleValue
27.700

@<SCITEGIC>MOL_PROPERTY
U+W
SciTegic.value.DoubleValue
-7.489

@<SCITEGIC>MOL_PROPERTY
U
SciTegic.value.DoubleValue
48.041

@<SCITEGIC>MOL_PROPERTY
W
SciTegic.value.DoubleValue
-55.530

@<SCITEGIC>MOL_PROPERTY
W(PB)
SciTegic.value.DoubleValue
-57.678

@<SCITEGIC>MOL_PROPERTY
W(SA)
SciTegic.value.DoubleValue
2.148

@<SCITEGIC>MOL_PROPERTY
Valence
SciTegic.value.DoubleValue
2.405

@<SCITEGIC>MOL_PROPERTY
Coulomb
SciTegic.value.DoubleValue
44.931

@<SCITEGIC>MOL_PROPERTY
VdW
SciTegic.value.DoubleValue
0.705

@<SCITEGIC>MOL_PROPERTY
VdW6
SciTegic.value.DoubleValue
-5.755

@<SCITEGIC>MOL_PROPERTY
VdW12
SciTegic.value.DoubleValue
6.460

@<SCITEGIC>MOL_PROPERTY
Bond
SciTegic.value.DoubleValue
0.178

@<SCITEGIC>MOL_PROPERTY
Angle
SciTegic.value.DoubleValue
0.724

@<SCITEGIC>MOL_PROPERTY
Pdih
SciTegic.value.DoubleValue
1.504

@<SCITEGIC>MOL_PROPERTY
Idih
SciTegic.value.DoubleValue
0.000

@<SCITEGIC>MOL_PROPERTY
Tether
SciTegic.value.DoubleValue
0.000

@<TRIPOS>MOLECULE
guest-2_vm2.mol2 : vm2 ligand conformer 18
          23          22           1
SMALL
USER_CHARGES
 
@<TRIPOS>ATOM
       1    N1      20.066908   18.779150   25.937773 N.4        1 MOL1        -0.5940
       2    H1      21.009035   19.040336   25.631764 H          1 MOL1         0.3649
       3    H2      20.034551   17.755481   25.979276 H          1 MOL1         0.3649
       4    H3      19.959003   19.120643   26.898872 H          1 MOL1         0.3649
       5    C1      18.999625   19.340279   25.018235 C.3        1 MOL1         0.0207
       6    H4      19.073419   20.430971   25.037562 H          1 MOL1         0.0950
       7    H5      18.026929   19.057725   25.430072 H          1 MOL1         0.0950
       8    C2      19.102640   18.838914   23.564515 C.3        1 MOL1        -0.1415
       9    H6      19.047198   17.742325   23.550626 H          1 MOL1         0.0976
      10    H7      18.224700   19.205097   23.018154 H          1 MOL1         0.0976
      11    C3      20.397219   19.314984   22.858438 C.3        1 MOL1        -0.1375
      12    H8      21.270273   18.980625   23.434256 H          1 MOL1         0.0976
      13    H9      20.433453   20.413222   22.852928 H          1 MOL1         0.0976
      14    C4      20.543653   18.784369   21.410781 C.3        1 MOL1        -0.1375
      15    H10     21.539099   19.062791   21.037957 H          1 MOL1         0.0976
      16    H11     20.513469   17.686019   21.416027 H          1 MOL1         0.0976
      17    C5      19.473125   19.331399   20.436772 C.3        1 MOL1        -0.1350
      18    H12     19.465906   20.429796   20.471725 H          1 MOL1         0.0976
      19    H13     18.473514   18.996137   20.743202 H          1 MOL1         0.0976
      20    C6      19.732830   18.867905   18.987486 C.3        1 MOL1        -0.2365
      21    H14     20.708731   19.220156   18.628668 H          1 MOL1         0.0987
      22    H15     18.963423   19.261754   18.310779 H          1 MOL1         0.0987
      23    H16     19.716802   17.772604   18.914759 H          1 MOL1         0.0987
@<TRIPOS>BOND
    1     1     2    1
    2     1     3    1
    3     1     4    1
    4     1     5    1
    5     5     6    1
    6     5     7    1
    7     5     8    1
    8     8     9    1
    9     8    10    1
   10     8    11    1
   11    11    12    1
   12    11    13    1
   13    11    14    1
   14    14    15    1
   15    14    16    1
   16    14    17    1
   17    17    18    1
   18    17    19    1
   19    17    20    1
   20    20    21    1
   21    20    22    1
   22    20    23    1
@<TRIPOS>SUBSTRUCTURE
       1 MOL1            1 RESIDUE      1      MOL     
@<SCITEGIC>MOL_PROPERTY
VM2 Rank
SciTegic.value.IntegerValue
18

@<SCITEGIC>MOL_PROPERTY
Conf_Id
SciTegic.value.IntegerValue
593

@<SCITEGIC>MOL_PROPERTY
Probability
SciTegic.value.DoubleValue
2.11

@<SCITEGIC>MOL_PROPERTY
Sum Probability
SciTegic.value.DoubleValue
74.15

@<SCITEGIC>MOL_PROPERTY
Delta G
SciTegic.value.DoubleValue
1.081

@<SCITEGIC>MOL_PROPERTY
G
SciTegic.value.DoubleValue
38.997

@<SCITEGIC>MOL_PROPERTY
E
SciTegic.value.DoubleValue
11.297

@<SCITEGIC>MOL_PROPERTY
-TS
SciTegic.value.DoubleValue
27.700

@<SCITEGIC>MOL_PROPERTY
U+W
SciTegic.value.DoubleValue
-7.482

@<SCITEGIC>MOL_PROPERTY
U
SciTegic.value.DoubleValue
48.041

@<SCITEGIC>MOL_PROPERTY
W
SciTegic.value.DoubleValue
-55.523

@<SCITEGIC>MOL_PROPERTY
W(PB)
SciTegic.value.DoubleValue
-57.654

@<SCITEGIC>MOL_PROPERTY
W(SA)
SciTegic.value.DoubleValue
2.131

@<SCITEGIC>MOL_PROPERTY
Valence
SciTegic.value.DoubleValue
2.405

@<SCITEGIC>MOL_PROPERTY
Coulomb
SciTegic.value.DoubleValue
44.931

@<SCITEGIC>MOL_PROPERTY
VdW
SciTegic.value.DoubleValue
0.705

@<SCITEGIC>MOL_PROPERTY
VdW6
SciTegic.value.DoubleValue
-5.755

@<SCITEGIC>MOL_PROPERTY
VdW12
SciTegic.value.DoubleValue
6.460

@<SCITEGIC>MOL_PROPERTY
Bond
SciTegic.value.DoubleValue
0.178

@<SCITEGIC>MOL_PROPERTY
Angle
SciTegic.value.DoubleValue
0.724

@<SCITEGIC>MOL_PROPERTY
Pdih
SciTegic.value.DoubleValue
1.504

@<SCITEGIC>MOL_PROPERTY
Idih
SciTegic.value.DoubleValue
0.000

@<SCITEGIC>MOL_PROPERTY
Tether
SciTegic.value.DoubleValue
0.000

@<TRIPOS>MOLECULE
guest-2_vm2.mol2 : vm2 ligand conformer 19
          23          22           1
SMALL
USER_CHARGES
 
@<TRIPOS>ATOM
       1    N1      19.981358   18.564629   26.072404 N.4        1 MOL1        -0.5940
       2    H1      19.052575   18.567007   26.506215 H          1 MOL1         0.3649
       3    H2      20.451746   19.428014   26.362453 H          1 MOL1         0.3649
       4    H3      20.503003   17.786324   26.489706 H          1 MOL1         0.3649
       5    C1      19.900623   18.443909   24.564207 C.3        1 MOL1         0.0207
       6    H4      19.416560   17.492690   24.326975 H          1 MOL1         0.0950
       7    H5      20.921595   18.417059   24.174776 H          1 MOL1         0.0950
       8    C2      19.122250   19.599305   23.907041 C.3        1 MOL1        -0.1415
       9    H6      18.112444   19.642191   24.336429 H          1 MOL1         0.0976
      10    H7      19.606854   20.554920   24.147709 H          1 MOL1         0.0976
      11    C3      19.009355   19.445160   22.372017 C.3        1 MOL1        -0.1375
      12    H8      18.375180   20.253140   21.981923 H          1 MOL1         0.0976
      13    H9      18.491989   18.504035   22.142968 H          1 MOL1         0.0976
      14    C4      20.383611   19.484894   21.656834 C.3        1 MOL1        -0.1375
      15    H10     20.929307   20.383115   21.977353 H          1 MOL1         0.0976
      16    H11     20.994355   18.625209   21.963575 H          1 MOL1         0.0976
      17    C5      20.271613   19.503179   20.113188 C.3        1 MOL1        -0.1350
      18    H12     21.276496   19.634474   19.687957 H          1 MOL1         0.0976
      19    H13     19.686230   20.376427   19.792938 H          1 MOL1         0.0976
      20    C6      19.647191   18.215923   19.528308 C.3        1 MOL1        -0.2365
      21    H14     19.671777   18.241235   18.431180 H          1 MOL1         0.0987
      22    H15     18.599117   18.102379   19.831862 H          1 MOL1         0.0987
      23    H16     20.198982   17.325250   19.855780 H          1 MOL1         0.0987
@<TRIPOS>BOND
    1     1     2    1
    2     1     3    1
    3     1     4    1
    4     1     5    1
    5     5     6    1
    6     5     7    1
    7     5     8    1
    8     8     9    1
    9     8    10    1
   10     8    11    1
   11    11    12    1
   12    11    13    1
   13    11    14    1
   14    14    15    1
   15    14    16    1
   16    14    17    1
   17    17    18    1
   18    17    19    1
   19    17    20    1
   20    20    21    1
   21    20    22    1
   22    20    23    1
@<TRIPOS>SUBSTRUCTURE
       1 MOL1            1 RESIDUE      1      MOL     
@<SCITEGIC>MOL_PROPERTY
VM2 Rank
SciTegic.value.IntegerValue
19

@<SCITEGIC>MOL_PROPERTY
Conf_Id
SciTegic.value.IntegerValue
343

@<SCITEGIC>MOL_PROPERTY
Probability
SciTegic.value.DoubleValue
2.02

@<SCITEGIC>MOL_PROPERTY
Sum Probability
SciTegic.value.DoubleValue
76.17

@<SCITEGIC>MOL_PROPERTY
Delta G
SciTegic.value.DoubleValue
1.109

@<SCITEGIC>MOL_PROPERTY
G
SciTegic.value.DoubleValue
39.025

@<SCITEGIC>MOL_PROPERTY
E
SciTegic.value.DoubleValue
11.288

@<SCITEGIC>MOL_PROPERTY
-TS
SciTegic.value.DoubleValue
27.737

@<SCITEGIC>MOL_PROPERTY
U+W
SciTegic.value.DoubleValue
-7.492

@<SCITEGIC>MOL_PROPERTY
U
SciTegic.value.DoubleValue
47.960

@<SCITEGIC>MOL_PROPERTY
W
SciTegic.value.DoubleValue
-55.452

@<SCITEGIC>MOL_PROPERTY
W(PB)
SciTegic.value.DoubleValue
-57.573

@<SCITEGIC>MOL_PROPERTY
W(SA)
SciTegic.value.DoubleValue
2.121

@<SCITEGIC>MOL_PROPERTY
Valence
SciTegic.value.DoubleValue
2.523

@<SCITEGIC>MOL_PROPERTY
Coulomb
SciTegic.value.DoubleValue
44.824

@<SCITEGIC>MOL_PROPERTY
VdW
SciTegic.value.DoubleValue
0.613

@<SCITEGIC>MOL_PROPERTY
VdW6
SciTegic.value.DoubleValue
-5.844

@<SCITEGIC>MOL_PROPERTY
VdW12
SciTegic.value.DoubleValue
6.458

@<SCITEGIC>MOL_PROPERTY
Bond
SciTegic.value.DoubleValue
0.171

@<SCITEGIC>MOL_PROPERTY
Angle
SciTegic.value.DoubleValue
0.728

@<SCITEGIC>MOL_PROPERTY
Pdih
SciTegic.value.DoubleValue
1.624

@<SCITEGIC>MOL_PROPERTY
Idih
SciTegic.value.DoubleValue
0.000

@<SCITEGIC>MOL_PROPERTY
Tether
SciTegic.value.DoubleValue
0.000

@<TRIPOS>MOLECULE
guest-2_vm2.mol2 : vm2 ligand conformer 20
          23          22           1
SMALL
USER_CHARGES
 
@<TRIPOS>ATOM
       1    N1      19.668645   18.434585   26.058176 N.4        1 MOL1        -0.5940
       2    H1      18.704856   18.701767   26.283012 H          1 MOL1         0.3649
       3    H2      20.285664   19.079521   26.562337 H          1 MOL1         0.3649
       4    H3      19.820745   17.502633   26.458611 H          1 MOL1         0.3649
       5    C1      19.927547   18.455141   24.565427 C.3        1 MOL1         0.0207
       6    H4      19.259685   17.726237   24.099143 H          1 MOL1         0.0950
       7    H5      20.959015   18.133957   24.397114 H          1 MOL1         0.0950
       8    C2      19.707437   19.842639   23.933703 C.3        1 MOL1        -0.1415
       9    H6      18.672172   20.166367   24.105136 H          1 MOL1         0.0976
      10    H7      20.352915   20.573708   24.438501 H          1 MOL1         0.0976
      11    C3      20.014844   19.863251   22.417825 C.3        1 MOL1        -0.1375
      12    H8      21.061998   19.572685   22.260060 H          1 MOL1         0.0976
      13    H9      19.918503   20.894870   22.052223 H          1 MOL1         0.0976
      14    C4      19.077257   18.941655   21.597310 C.3        1 MOL1        -0.1375
      15    H10     19.233132   17.892819   21.883320 H          1 MOL1         0.0976
      16    H11     18.033483   19.178919   21.845413 H          1 MOL1         0.0976
      17    C5      19.262666   19.083610   20.067213 C.3        1 MOL1        -0.1350
      18    H12     19.080387   20.124489   19.765320 H          1 MOL1         0.0976
      19    H13     18.497176   18.478675   19.561320 H          1 MOL1         0.0976
      20    C6      20.657604   18.636119   19.574347 C.3        1 MOL1        -0.2365
      21    H14     20.875259   17.606503   19.886641 H          1 MOL1         0.0987
      22    H15     21.450285   19.288103   19.961736 H          1 MOL1         0.0987
      23    H16     20.707503   18.671911   18.478370 H          1 MOL1         0.0987
@<TRIPOS>BOND
    1     1     2    1
    2     1     3    1
    3     1     4    1
    4     1     5    1
    5     5     6    1
    6     5     7    1
    7     5     8    1
    8     8     9    1
    9     8    10    1
   10     8    11    1
   11    11    12    1
   12    11    13    1
   13    11    14    1
   14    14    15    1
   15    14    16    1
   16    14    17    1
   17    17    18    1
   18    17    19    1
   19    17    20    1
   20    20    21    1
   21    20    22    1
   22    20    23    1
@<TRIPOS>SUBSTRUCTURE
       1 MOL1            1 RESIDUE      1      MOL     
@<SCITEGIC>MOL_PROPERTY
VM2 Rank
SciTegic.value.IntegerValue
20

@<SCITEGIC>MOL_PROPERTY
Conf_Id
SciTegic.value.IntegerValue
490

@<SCITEGIC>MOL_PROPERTY
Probability
SciTegic.value.DoubleValue
2.02

@<SCITEGIC>MOL_PROPERTY
Sum Probability
SciTegic.value.DoubleValue
78.19

@<SCITEGIC>MOL_PROPERTY
Delta G
SciTegic.value.DoubleValue
1.109

@<SCITEGIC>MOL_PROPERTY
G
SciTegic.value.DoubleValue
39.025

@<SCITEGIC>MOL_PROPERTY
E
SciTegic.value.DoubleValue
11.288

@<SCITEGIC>MOL_PROPERTY
-TS
SciTegic.value.DoubleValue
27.737

@<SCITEGIC>MOL_PROPERTY
U+W
SciTegic.value.DoubleValue
-7.491

@<SCITEGIC>MOL_PROPERTY
U
SciTegic.value.DoubleValue
47.960

@<SCITEGIC>MOL_PROPERTY
W
SciTegic.value.DoubleValue
-55.452

@<SCITEGIC>MOL_PROPERTY
W(PB)
SciTegic.value.DoubleValue
-57.583

@<SCITEGIC>MOL_PROPERTY
W(SA)
SciTegic.value.DoubleValue
2.131

@<SCITEGIC>MOL_PROPERTY
Valence
SciTegic.value.DoubleValue
2.523

@<SCITEGIC>MOL_PROPERTY
Coulomb
SciTegic.value.DoubleValue
44.824

@<SCITEGIC>MOL_PROPERTY
VdW
SciTegic.value.DoubleValue
0.613

@<SCITEGIC>MOL_PROPERTY
VdW6
SciTegic.value.DoubleValue
-5.844

@<SCITEGIC>MOL_PROPERTY
VdW12
SciTegic.value.DoubleValue
6.458

@<SCITEGIC>MOL_PROPERTY
Bond
SciTegic.value.DoubleValue
0.171

@<SCITEGIC>MOL_PROPERTY
Angle
SciTegic.value.DoubleValue
0.728

@<SCITEGIC>MOL_PROPERTY
Pdih
SciTegic.value.DoubleValue
1.624

@<SCITEGIC>MOL_PROPERTY
Idih
SciTegic.value.DoubleValue
0.000

@<SCITEGIC>MOL_PROPERTY
Tether
SciTegic.value.DoubleValue
0.000

@<TRIPOS>MOLECULE
guest-2_vm2.mol2 : vm2 ligand conformer 21
          23          22           1
SMALL
USER_CHARGES
 
@<TRIPOS>ATOM
       1    N1      19.932807   17.951126   25.593062 N.4        1 MOL1        -0.5940
       2    H1      19.393644   17.129493   25.301655 H          1 MOL1         0.3649
       3    H2      19.398192   18.415260   26.334396 H          1 MOL1         0.3649
       4    H3      20.797170   17.603753   26.022231 H          1 MOL1         0.3649
       5    C1      20.215772   18.883020   24.432379 C.3        1 MOL1         0.0207
       6    H4      20.810850   18.333649   23.698166 H          1 MOL1         0.0950
       7    H5      20.815174   19.717143   24.806980 H          1 MOL1         0.0950
       8    C2      18.936754   19.422710   23.765327 C.3        1 MOL1        -0.1415
       9    H6      18.329141   18.585741   23.398395 H          1 MOL1         0.0976
      10    H7      18.327393   19.936183   24.520882 H          1 MOL1         0.0976
      11    C3      19.234297   20.410188   22.609354 C.3        1 MOL1        -0.1375
      12    H8      19.723607   21.303261   23.022233 H          1 MOL1         0.0976
      13    H9      18.282926   20.757472   22.183256 H          1 MOL1         0.0976
      14    C4      20.121248   19.838275   21.473033 C.3        1 MOL1        -0.1375
      15    H10     20.284382   20.630950   20.729784 H          1 MOL1         0.0976
      16    H11     21.115137   19.582521   21.864155 H          1 MOL1         0.0976
      17    C5      19.505980   18.606981   20.767010 C.3        1 MOL1        -0.1350
      18    H12     18.494306   18.849405   20.412790 H          1 MOL1         0.0976
      19    H13     19.404620   17.774864   21.476425 H          1 MOL1         0.0976
      20    C6      20.369142   18.144699   19.573836 C.3        1 MOL1        -0.2365
      21    H14     21.379159   17.866451   19.901940 H          1 MOL1         0.0987
      22    H15     20.460684   18.938631   18.821177 H          1 MOL1         0.0987
      23    H16     19.920108   17.269436   19.086699 H          1 MOL1         0.0987
@<TRIPOS>BOND
    1     1     2    1
    2     1     3    1
    3     1     4    1
    4     1     5    1
    5     5     6    1
    6     5     7    1
    7     5     8    1
    8     8     9    1
    9     8    10    1
   10     8    11    1
   11    11    12    1
   12    11    13    1
   13    11    14    1
   14    14    15    1
   15    14    16    1
   16    14    17    1
   17    17    18    1
   18    17    19    1
   19    17    20    1
   20    20    21    1
   21    20    22    1
   22    20    23    1
@<TRIPOS>SUBSTRUCTURE
       1 MOL1            1 RESIDUE      1      MOL     
@<SCITEGIC>MOL_PROPERTY
VM2 Rank
SciTegic.value.IntegerValue
21

@<SCITEGIC>MOL_PROPERTY
Conf_Id
SciTegic.value.IntegerValue
698

@<SCITEGIC>MOL_PROPERTY
Probability
SciTegic.value.DoubleValue
1.86

@<SCITEGIC>MOL_PROPERTY
Sum Probability
SciTegic.value.DoubleValue
80.04

@<SCITEGIC>MOL_PROPERTY
Delta G
SciTegic.value.DoubleValue
1.158

@<SCITEGIC>MOL_PROPERTY
G
SciTegic.value.DoubleValue
39.074

@<SCITEGIC>MOL_PROPERTY
E
SciTegic.value.DoubleValue
11.221

@<SCITEGIC>MOL_PROPERTY
-TS
SciTegic.value.DoubleValue
27.852

@<SCITEGIC>MOL_PROPERTY
U+W
SciTegic.value.DoubleValue
-7.558

@<SCITEGIC>MOL_PROPERTY
U
SciTegic.value.DoubleValue
48.231

@<SCITEGIC>MOL_PROPERTY
W
SciTegic.value.DoubleValue
-55.788

@<SCITEGIC>MOL_PROPERTY
W(PB)
SciTegic.value.DoubleValue
-57.904

@<SCITEGIC>MOL_PROPERTY
W(SA)
SciTegic.value.DoubleValue
2.116

@<SCITEGIC>MOL_PROPERTY
Valence
SciTegic.value.DoubleValue
2.496

@<SCITEGIC>MOL_PROPERTY
Coulomb
SciTegic.value.DoubleValue
45.257

@<SCITEGIC>MOL_PROPERTY
VdW
SciTegic.value.DoubleValue
0.478

@<SCITEGIC>MOL_PROPERTY
VdW6
SciTegic.value.DoubleValue
-6.161

@<SCITEGIC>MOL_PROPERTY
VdW12
SciTegic.value.DoubleValue
6.639

@<SCITEGIC>MOL_PROPERTY
Bond
SciTegic.value.DoubleValue
0.180

@<SCITEGIC>MOL_PROPERTY
Angle
SciTegic.value.DoubleValue
0.891

@<SCITEGIC>MOL_PROPERTY
Pdih
SciTegic.value.DoubleValue
1.425

@<SCITEGIC>MOL_PROPERTY
Idih
SciTegic.value.DoubleValue
0.000

@<SCITEGIC>MOL_PROPERTY
Tether
SciTegic.value.DoubleValue
0.000

@<TRIPOS>MOLECULE
guest-2_vm2.mol2 : vm2 ligand conformer 22
          23          22           1
SMALL
USER_CHARGES
 
@<TRIPOS>ATOM
       1    N1      19.935263   19.009101   26.181613 N.4        1 MOL1        -0.5940
       2    H1      19.099808   18.565116   26.576239 H          1 MOL1         0.3649
       3    H2      20.165025   19.803580   26.788277 H          1 MOL1         0.3649
       4    H3      20.703687   18.336152   26.268196 H          1 MOL1         0.3649
       5    C1      19.720996   19.441025   24.745192 C.3        1 MOL1         0.0207
       6    H4      20.636157   19.930752   24.402900 H          1 MOL1         0.0950
       7    H5      18.911263   20.175557   24.730853 H          1 MOL1         0.0950
       8    C2      19.373599   18.268697   23.808126 C.3        1 MOL1        -0.1415
       9    H6      20.187144   17.531163   23.821202 H          1 MOL1         0.0976
      10    H7      18.480260   17.757687   24.191221 H          1 MOL1         0.0976
      11    C3      19.105884   18.721932   22.353300 C.3        1 MOL1        -0.1375
      12    H8      18.285052   19.452334   22.342340 H          1 MOL1         0.0976
      13    H9      18.756549   17.852342   21.781686 H          1 MOL1         0.0976
      14    C4      20.355605   19.328271   21.665461 C.3        1 MOL1        -0.1375
      15    H10     20.719078   20.182843   22.251208 H          1 MOL1         0.0976
      16    H11     21.169352   18.590041   21.658193 H          1 MOL1         0.0976
      17    C5      20.088013   19.815013   20.220471 C.3        1 MOL1        -0.1350
      18    H12     20.984669   20.332844   19.852053 H          1 MOL1         0.0976
      19    H13     19.281715   20.561789   20.222898 H          1 MOL1         0.0976
      20    C6      19.736640   18.672962   19.239837 C.3        1 MOL1        -0.2365
      21    H14     19.653397   19.058735   18.215535 H          1 MOL1         0.0987
      22    H15     18.778157   18.203455   19.493074 H          1 MOL1         0.0987
      23    H16     20.512471   17.896377   19.243535 H          1 MOL1         0.0987
@<TRIPOS>BOND
    1     1     2    1
    2     1     3    1
    3     1     4    1
    4     1     5    1
    5     5     6    1
    6     5     7    1
    7     5     8    1
    8     8     9    1
    9     8    10    1
   10     8    11    1
   11    11    12    1
   12    11    13    1
   13    11    14    1
   14    14    15    1
   15    14    16    1
   16    14    17    1
   17    17    18    1
   18    17    19    1
   19    17    20    1
   20    20    21    1
   21    20    22    1
   22    20    23    1
@<TRIPOS>SUBSTRUCTURE
       1 MOL1            1 RESIDUE      1      MOL     
@<SCITEGIC>MOL_PROPERTY
VM2 Rank
SciTegic.value.IntegerValue
22

@<SCITEGIC>MOL_PROPERTY
Conf_Id
SciTegic.value.IntegerValue
568

@<SCITEGIC>MOL_PROPERTY
Probability
SciTegic.value.DoubleValue
1.86

@<SCITEGIC>MOL_PROPERTY
Sum Probability
SciTegic.value.DoubleValue
81.90

@<SCITEGIC>MOL_PROPERTY
Delta G
SciTegic.value.DoubleValue
1.159

@<SCITEGIC>MOL_PROPERTY
G
SciTegic.value.DoubleValue
39.075

@<SCITEGIC>MOL_PROPERTY
E
SciTegic.value.DoubleValue
11.370

@<SCITEGIC>MOL_PROPERTY
-TS
SciTegic.value.DoubleValue
27.705

@<SCITEGIC>MOL_PROPERTY
U+W
SciTegic.value.DoubleValue
-7.409

@<SCITEGIC>MOL_PROPERTY
U
SciTegic.value.DoubleValue
48.047

@<SCITEGIC>MOL_PROPERTY
W
SciTegic.value.DoubleValue
-55.456

@<SCITEGIC>MOL_PROPERTY
W(PB)
SciTegic.value.DoubleValue
-57.595

@<SCITEGIC>MOL_PROPERTY
W(SA)
SciTegic.value.DoubleValue
2.138

@<SCITEGIC>MOL_PROPERTY
Valence
SciTegic.value.DoubleValue
2.583

@<SCITEGIC>MOL_PROPERTY
Coulomb
SciTegic.value.DoubleValue
44.791

@<SCITEGIC>MOL_PROPERTY
VdW
SciTegic.value.DoubleValue
0.673

@<SCITEGIC>MOL_PROPERTY
VdW6
SciTegic.value.DoubleValue
-5.789

@<SCITEGIC>MOL_PROPERTY
VdW12
SciTegic.value.DoubleValue
6.462

@<SCITEGIC>MOL_PROPERTY
Bond
SciTegic.value.DoubleValue
0.177

@<SCITEGIC>MOL_PROPERTY
Angle
SciTegic.value.DoubleValue
0.787

@<SCITEGIC>MOL_PROPERTY
Pdih
SciTegic.value.DoubleValue
1.619

@<SCITEGIC>MOL_PROPERTY
Idih
SciTegic.value.DoubleValue
0.000

@<SCITEGIC>MOL_PROPERTY
Tether
SciTegic.value.DoubleValue
0.000

@<TRIPOS>MOLECULE
guest-2_vm2.mol2 : vm2 ligand conformer 23
          23          22           1
SMALL
USER_CHARGES
 
@<TRIPOS>ATOM
       1    N1      20.174762   18.051686   25.603908 N.4        1 MOL1        -0.5940
       2    H1      20.163651   18.733590   26.369212 H          1 MOL1         0.3649
       3    H2      21.157617   17.863654   25.381783 H          1 MOL1         0.3649
       4    H3      19.781100   17.180572   25.975619 H          1 MOL1         0.3649
       5    C1      19.406104   18.546048   24.395418 C.3        1 MOL1         0.0207
       6    H4      18.365707   18.697610   24.695376 H          1 MOL1         0.0950
       7    H5      19.434548   17.760936   23.635297 H          1 MOL1         0.0950
       8    C2      19.973004   19.854119   23.812591 C.3        1 MOL1        -0.1415
       9    H6      19.978215   20.623388   24.596197 H          1 MOL1         0.0976
      10    H7      21.020628   19.706146   23.521150 H          1 MOL1         0.0976
      11    C3      19.154536   20.377075   22.605716 C.3        1 MOL1        -0.1375
      12    H8      19.609211   21.309539   22.243700 H          1 MOL1         0.0976
      13    H9      18.146644   20.647025   22.950322 H          1 MOL1         0.0976
      14    C4      19.025387   19.382227   21.423094 C.3        1 MOL1        -0.1375
      15    H10     18.478729   18.485348   21.743995 H          1 MOL1         0.0976
      16    H11     18.407213   19.849701   20.644189 H          1 MOL1         0.0976
      17    C5      20.383948   18.972366   20.807109 C.3        1 MOL1        -0.1350
      18    H12     20.989346   18.434443   21.548791 H          1 MOL1         0.0976
      19    H13     20.949646   19.871251   20.524763 H          1 MOL1         0.0976
      20    C6      20.198259   18.073479   19.566164 C.3        1 MOL1        -0.2365
      21    H14     19.630127   18.592810   18.783396 H          1 MOL1         0.0987
      22    H15     19.661148   17.151332   19.823780 H          1 MOL1         0.0987
      23    H16     21.171038   17.789947   19.143871 H          1 MOL1         0.0987
@<TRIPOS>BOND
    1     1     2    1
    2     1     3    1
    3     1     4    1
    4     1     5    1
    5     5     6    1
    6     5     7    1
    7     5     8    1
    8     8     9    1
    9     8    10    1
   10     8    11    1
   11    11    12    1
   12    11    13    1
   13    11    14    1
   14    14    15    1
   15    14    16    1
   16    14    17    1
   17    17    18    1
   18    17    19    1
   19    17    20    1
   20    20    21    1
   21    20    22    1
   22    20    23    1
@<TRIPOS>SUBSTRUCTURE
       1 MOL1            1 RESIDUE      1      MOL     
@<SCITEGIC>MOL_PROPERTY
VM2 Rank
SciTegic.value.IntegerValue
23

@<SCITEGIC>MOL_PROPERTY
Conf_Id
SciTegic.value.IntegerValue
345

@<SCITEGIC>MOL_PROPERTY
Probability
SciTegic.value.DoubleValue
1.79

@<SCITEGIC>MOL_PROPERTY
Sum Probability
SciTegic.value.DoubleValue
83.69

@<SCITEGIC>MOL_PROPERTY
Delta G
SciTegic.value.DoubleValue
1.179

@<SCITEGIC>MOL_PROPERTY
G
SciTegic.value.DoubleValue
39.095

@<SCITEGIC>MOL_PROPERTY
E
SciTegic.value.DoubleValue
11.242

@<SCITEGIC>MOL_PROPERTY
-TS
SciTegic.value.DoubleValue
27.853

@<SCITEGIC>MOL_PROPERTY
U+W
SciTegic.value.DoubleValue
-7.537

@<SCITEGIC>MOL_PROPERTY
U
SciTegic.value.DoubleValue
48.231

@<SCITEGIC>MOL_PROPERTY
W
SciTegic.value.DoubleValue
-55.767

@<SCITEGIC>MOL_PROPERTY
W(PB)
SciTegic.value.DoubleValue
-57.889

@<SCITEGIC>MOL_PROPERTY
W(SA)
SciTegic.value.DoubleValue
2.121

@<SCITEGIC>MOL_PROPERTY
Valence
SciTegic.value.DoubleValue
2.496

@<SCITEGIC>MOL_PROPERTY
Coulomb
SciTegic.value.DoubleValue
45.257

@<SCITEGIC>MOL_PROPERTY
VdW
SciTegic.value.DoubleValue
0.478

@<SCITEGIC>MOL_PROPERTY
VdW6
SciTegic.value.DoubleValue
-6.161

@<SCITEGIC>MOL_PROPERTY
VdW12
SciTegic.value.DoubleValue
6.639

@<SCITEGIC>MOL_PROPERTY
Bond
SciTegic.value.DoubleValue
0.180

@<SCITEGIC>MOL_PROPERTY
Angle
SciTegic.value.DoubleValue
0.891

@<SCITEGIC>MOL_PROPERTY
Pdih
SciTegic.value.DoubleValue
1.425

@<SCITEGIC>MOL_PROPERTY
Idih
SciTegic.value.DoubleValue
0.000

@<SCITEGIC>MOL_PROPERTY
Tether
SciTegic.value.DoubleValue
0.000

@<TRIPOS>MOLECULE
guest-2_vm2.mol2 : vm2 ligand conformer 24
          23          22           1
SMALL
USER_CHARGES
 
@<TRIPOS>ATOM
       1    N1      19.377940   18.777256   26.156229 N.4        1 MOL1        -0.5940
       2    H1      18.607155   19.155551   26.717311 H          1 MOL1         0.3649
       3    H2      20.248143   19.042733   26.628571 H          1 MOL1         0.3649
       4    H3      19.308201   17.755674   26.204620 H          1 MOL1         0.3649
       5    C1      19.333958   19.280026   24.727569 C.3        1 MOL1         0.0207
       6    H4      19.383523   20.371968   24.752389 H          1 MOL1         0.0950
       7    H5      18.371346   18.988727   24.299734 H          1 MOL1         0.0950
       8    C2      20.480411   18.729048   23.858545 C.3        1 MOL1        -0.1415
       9    H6      21.439606   18.988535   24.326046 H          1 MOL1         0.0976
      10    H7      20.430373   17.632330   23.832251 H          1 MOL1         0.0976
      11    C3      20.460336   19.285298   22.415009 C.3        1 MOL1        -0.1375
      12    H8      21.365475   18.937424   21.900549 H          1 MOL1         0.0976
      13    H9      20.520450   20.382070   22.444187 H          1 MOL1         0.0976
      14    C4      19.207071   18.850697   21.613123 C.3        1 MOL1        -0.1375
      15    H10     19.158841   17.754004   21.566647 H          1 MOL1         0.0976
      16    H11     18.301541   19.177585   22.141012 H          1 MOL1         0.0976
      17    C5      19.162523   19.430087   20.178255 C.3        1 MOL1        -0.1350
      18    H12     19.199764   20.527696   20.219056 H          1 MOL1         0.0976
      19    H13     18.195055   19.172584   19.724853 H          1 MOL1         0.0976
      20    C6      20.293761   18.904589   19.265270 C.3        1 MOL1        -0.2365
      21    H14     20.158594   19.268661   18.238563 H          1 MOL1         0.0987
      22    H15     20.298572   17.807317   19.233927 H          1 MOL1         0.0987
      23    H16     21.279360   19.243704   19.607105 H          1 MOL1         0.0987
@<TRIPOS>BOND
    1     1     2    1
    2     1     3    1
    3     1     4    1
    4     1     5    1
    5     5     6    1
    6     5     7    1
    7     5     8    1
    8     8     9    1
    9     8    10    1
   10     8    11    1
   11    11    12    1
   12    11    13    1
   13    11    14    1
   14    14    15    1
   15    14    16    1
   16    14    17    1
   17    17    18    1
   18    17    19    1
   19    17    20    1
   20    20    21    1
   21    20    22    1
   22    20    23    1
@<TRIPOS>SUBSTRUCTURE
       1 MOL1            1 RESIDUE      1      MOL     
@<SCITEGIC>MOL_PROPERTY
VM2 Rank
SciTegic.value.IntegerValue
24

@<SCITEGIC>MOL_PROPERTY
Conf_Id
SciTegic.value.IntegerValue
189

@<SCITEGIC>MOL_PROPERTY
Probability
SciTegic.value.DoubleValue
1.76

@<SCITEGIC>MOL_PROPERTY
Sum Probability
SciTegic.value.DoubleValue
85.46

@<SCITEGIC>MOL_PROPERTY
Delta G
SciTegic.value.DoubleValue
1.189

@<SCITEGIC>MOL_PROPERTY
G
SciTegic.value.DoubleValue
39.105

@<SCITEGIC>MOL_PROPERTY
E
SciTegic.value.DoubleValue
11.400

@<SCITEGIC>MOL_PROPERTY
-TS
SciTegic.value.DoubleValue
27.705

@<SCITEGIC>MOL_PROPERTY
U+W
SciTegic.value.DoubleValue
-7.379

@<SCITEGIC>MOL_PROPERTY
U
SciTegic.value.DoubleValue
48.047

@<SCITEGIC>MOL_PROPERTY
W
SciTegic.value.DoubleValue
-55.426

@<SCITEGIC>MOL_PROPERTY
W(PB)
SciTegic.value.DoubleValue
-57.543

@<SCITEGIC>MOL_PROPERTY
W(SA)
SciTegic.value.DoubleValue
2.116

@<SCITEGIC>MOL_PROPERTY
Valence
SciTegic.value.DoubleValue
2.583

@<SCITEGIC>MOL_PROPERTY
Coulomb
SciTegic.value.DoubleValue
44.791

@<SCITEGIC>MOL_PROPERTY
VdW
SciTegic.value.DoubleValue
0.674

@<SCITEGIC>MOL_PROPERTY
VdW6
SciTegic.value.DoubleValue
-5.789

@<SCITEGIC>MOL_PROPERTY
VdW12
SciTegic.value.DoubleValue
6.462

@<SCITEGIC>MOL_PROPERTY
Bond
SciTegic.value.DoubleValue
0.177

@<SCITEGIC>MOL_PROPERTY
Angle
SciTegic.value.DoubleValue
0.787

@<SCITEGIC>MOL_PROPERTY
Pdih
SciTegic.value.DoubleValue
1.619

@<SCITEGIC>MOL_PROPERTY
Idih
SciTegic.value.DoubleValue
0.000

@<SCITEGIC>MOL_PROPERTY
Tether
SciTegic.value.DoubleValue
0.000

@<TRIPOS>MOLECULE
guest-2_vm2.mol2 : vm2 ligand conformer 25
          23          22           1
SMALL
USER_CHARGES
 
@<TRIPOS>ATOM
       1    N1      20.052334   18.228338   25.896307 N.4        1 MOL1        -0.5940
       2    H1      19.117380   17.849828   26.079144 H          1 MOL1         0.3649
       3    H2      20.419421   18.561918   26.794095 H          1 MOL1         0.3649
       4    H3      20.644141   17.443403   25.605744 H          1 MOL1         0.3649
       5    C1      20.022834   19.329917   24.856317 C.3        1 MOL1         0.0207
       6    H4      21.042300   19.705460   24.733315 H          1 MOL1         0.0950
       7    H5      19.401586   20.142331   25.242974 H          1 MOL1         0.0950
       8    C2      19.475816   18.861902   23.496155 C.3        1 MOL1        -0.1415
       9    H6      20.096049   18.035453   23.126723 H          1 MOL1         0.0976
      10    H7      18.458051   18.470870   23.626706 H          1 MOL1         0.0976
      11    C3      19.462055   20.016423   22.467005 C.3        1 MOL1        -0.1375
      12    H8      20.484889   20.382005   22.305195 H          1 MOL1         0.0976
      13    H9      18.902630   20.863107   22.888574 H          1 MOL1         0.0976
      14    C4      18.816177   19.631583   21.110685 C.3        1 MOL1        -0.1375
      15    H10     17.760690   19.375929   21.277453 H          1 MOL1         0.0976
      16    H11     18.811172   20.516436   20.459357 H          1 MOL1         0.0976
      17    C5      19.500450   18.461041   20.359306 C.3        1 MOL1        -0.1350
      18    H12     18.956030   18.282139   19.421573 H          1 MOL1         0.0976
      19    H13     19.410615   17.532885   20.939418 H          1 MOL1         0.0976
      20    C6      20.986335   18.727796   20.028225 C.3        1 MOL1        -0.2365
      21    H14     21.396470   17.913170   19.417459 H          1 MOL1         0.0987
      22    H15     21.595063   18.796580   20.938368 H          1 MOL1         0.0987
      23    H16     21.103294   19.662210   19.464179 H          1 MOL1         0.0987
@<TRIPOS>BOND
    1     1     2    1
    2     1     3    1
    3     1     4    1
    4     1     5    1
    5     5     6    1
    6     5     7    1
    7     5     8    1
    8     8     9    1
    9     8    10    1
   10     8    11    1
   11    11    12    1
   12    11    13    1
   13    11    14    1
   14    14    15    1
   15    14    16    1
   16    14    17    1
   17    17    18    1
   18    17    19    1
   19    17    20    1
   20    20    21    1
   21    20    22    1
   22    20    23    1
@<TRIPOS>SUBSTRUCTURE
       1 MOL1            1 RESIDUE      1      MOL     
@<SCITEGIC>MOL_PROPERTY
VM2 Rank
SciTegic.value.IntegerValue
25

@<SCITEGIC>MOL_PROPERTY
Conf_Id
SciTegic.value.IntegerValue
176

@<SCITEGIC>MOL_PROPERTY
Probability
SciTegic.value.DoubleValue
1.61

@<SCITEGIC>MOL_PROPERTY
Sum Probability
SciTegic.value.DoubleValue
87.07

@<SCITEGIC>MOL_PROPERTY
Delta G
SciTegic.value.DoubleValue
1.242

@<SCITEGIC>MOL_PROPERTY
G
SciTegic.value.DoubleValue
39.158

@<SCITEGIC>MOL_PROPERTY
E
SciTegic.value.DoubleValue
11.212

@<SCITEGIC>MOL_PROPERTY
-TS
SciTegic.value.DoubleValue
27.945

@<SCITEGIC>MOL_PROPERTY
U+W
SciTegic.value.DoubleValue
-7.567

@<SCITEGIC>MOL_PROPERTY
U
SciTegic.value.DoubleValue
48.054

@<SCITEGIC>MOL_PROPERTY
W
SciTegic.value.DoubleValue
-55.620

@<SCITEGIC>MOL_PROPERTY
W(PB)
SciTegic.value.DoubleValue
-57.724

@<SCITEGIC>MOL_PROPERTY
W(SA)
SciTegic.value.DoubleValue
2.103

@<SCITEGIC>MOL_PROPERTY
Valence
SciTegic.value.DoubleValue
2.692

@<SCITEGIC>MOL_PROPERTY
Coulomb
SciTegic.value.DoubleValue
44.814

@<SCITEGIC>MOL_PROPERTY
VdW
SciTegic.value.DoubleValue
0.547

@<SCITEGIC>MOL_PROPERTY
VdW6
SciTegic.value.DoubleValue
-6.176

@<SCITEGIC>MOL_PROPERTY
VdW12
SciTegic.value.DoubleValue
6.723

@<SCITEGIC>MOL_PROPERTY
Bond
SciTegic.value.DoubleValue
0.192

@<SCITEGIC>MOL_PROPERTY
Angle
SciTegic.value.DoubleValue
1.036

@<SCITEGIC>MOL_PROPERTY
Pdih
SciTegic.value.DoubleValue
1.465

@<SCITEGIC>MOL_PROPERTY
Idih
SciTegic.value.DoubleValue
0.000

@<SCITEGIC>MOL_PROPERTY
Tether
SciTegic.value.DoubleValue
0.000

@<TRIPOS>MOLECULE
guest-2_vm2.mol2 : vm2 ligand conformer 26
          23          22           1
SMALL
USER_CHARGES
 
@<TRIPOS>ATOM
       1    N1      19.871020   18.152878   25.888038 N.4        1 MOL1        -0.5940
       2    H1      19.307548   18.099093   26.743407 H          1 MOL1         0.3649
       3    H2      20.780913   18.542342   26.154965 H          1 MOL1         0.3649
       4    H3      20.034349   17.189572   25.577957 H          1 MOL1         0.3649
       5    C1      19.192093   18.984104   24.818438 C.3        1 MOL1         0.0207
       6    H4      19.022514   19.984539   25.225672 H          1 MOL1         0.0950
       7    H5      18.220361   18.530762   24.604681 H          1 MOL1         0.0950
       8    C2      20.012887   19.085456   23.520621 C.3        1 MOL1        -0.1415
       9    H6      20.993831   19.526382   23.742276 H          1 MOL1         0.0976
      10    H7      20.191735   18.075283   23.131063 H          1 MOL1         0.0976
      11    C3      19.284613   19.942577   22.458916 C.3        1 MOL1        -0.1375
      12    H8      19.044732   20.922267   22.895053 H          1 MOL1         0.0976
      13    H9      18.320559   19.481129   22.206544 H          1 MOL1         0.0976
      14    C4      20.115564   20.172451   21.169909 C.3        1 MOL1        -0.1375
      15    H10     19.542857   20.820992   20.492694 H          1 MOL1         0.0976
      16    H11     21.024279   20.734388   21.426200 H          1 MOL1         0.0976
      17    C5      20.522822   18.886590   20.405925 C.3        1 MOL1        -0.1350
      18    H12     21.198253   18.276979   21.020939 H          1 MOL1         0.0976
      19    H13     21.104276   19.176297   19.519516 H          1 MOL1         0.0976
      20    C6      19.317000   18.032945   19.952154 C.3        1 MOL1        -0.2365
      21    H14     18.770569   17.620920   20.809644 H          1 MOL1         0.0987
      22    H15     19.653599   17.187700   19.338049 H          1 MOL1         0.0987
      23    H16     18.616852   18.627239   19.350853 H          1 MOL1         0.0987
@<TRIPOS>BOND
    1     1     2    1
    2     1     3    1
    3     1     4    1
    4     1     5    1
    5     5     6    1
    6     5     7    1
    7     5     8    1
    8     8     9    1
    9     8    10    1
   10     8    11    1
   11    11    12    1
   12    11    13    1
   13    11    14    1
   14    14    15    1
   15    14    16    1
   16    14    17    1
   17    17    18    1
   18    17    19    1
   19    17    20    1
   20    20    21    1
   21    20    22    1
   22    20    23    1
@<TRIPOS>SUBSTRUCTURE
       1 MOL1            1 RESIDUE      1      MOL     
@<SCITEGIC>MOL_PROPERTY
VM2 Rank
SciTegic.value.IntegerValue
26

@<SCITEGIC>MOL_PROPERTY
Conf_Id
SciTegic.value.IntegerValue
630

@<SCITEGIC>MOL_PROPERTY
Probability
SciTegic.value.DoubleValue
1.41

@<SCITEGIC>MOL_PROPERTY
Sum Probability
SciTegic.value.DoubleValue
88.48

@<SCITEGIC>MOL_PROPERTY
Delta G
SciTegic.value.DoubleValue
1.323

@<SCITEGIC>MOL_PROPERTY
G
SciTegic.value.DoubleValue
39.239

@<SCITEGIC>MOL_PROPERTY
E
SciTegic.value.DoubleValue
11.293

@<SCITEGIC>MOL_PROPERTY
-TS
SciTegic.value.DoubleValue
27.945

@<SCITEGIC>MOL_PROPERTY
U+W
SciTegic.value.DoubleValue
-7.486

@<SCITEGIC>MOL_PROPERTY
U
SciTegic.value.DoubleValue
48.054

@<SCITEGIC>MOL_PROPERTY
W
SciTegic.value.DoubleValue
-55.539

@<SCITEGIC>MOL_PROPERTY
W(PB)
SciTegic.value.DoubleValue
-57.644

@<SCITEGIC>MOL_PROPERTY
W(SA)
SciTegic.value.DoubleValue
2.105

@<SCITEGIC>MOL_PROPERTY
Valence
SciTegic.value.DoubleValue
2.692

@<SCITEGIC>MOL_PROPERTY
Coulomb
SciTegic.value.DoubleValue
44.814

@<SCITEGIC>MOL_PROPERTY
VdW
SciTegic.value.DoubleValue
0.547

@<SCITEGIC>MOL_PROPERTY
VdW6
SciTegic.value.DoubleValue
-6.176

@<SCITEGIC>MOL_PROPERTY
VdW12
SciTegic.value.DoubleValue
6.723

@<SCITEGIC>MOL_PROPERTY
Bond
SciTegic.value.DoubleValue
0.192

@<SCITEGIC>MOL_PROPERTY
Angle
SciTegic.value.DoubleValue
1.036

@<SCITEGIC>MOL_PROPERTY
Pdih
SciTegic.value.DoubleValue
1.465

@<SCITEGIC>MOL_PROPERTY
Idih
SciTegic.value.DoubleValue
0.000

@<SCITEGIC>MOL_PROPERTY
Tether
SciTegic.value.DoubleValue
0.000

@<TRIPOS>MOLECULE
guest-2_vm2.mol2 : vm2 ligand conformer 27
          23          22           1
SMALL
USER_CHARGES
 
@<TRIPOS>ATOM
       1    N1      19.877266   18.689209   25.795789 N.4        1 MOL1        -0.5940
       2    H1      20.273784   18.982510   26.695057 H          1 MOL1         0.3649
       3    H2      20.445621   17.906056   25.459524 H          1 MOL1         0.3649
       4    H3      18.939614   18.322571   25.988208 H          1 MOL1         0.3649
       5    C1      19.842549   19.829937   24.797317 C.3        1 MOL1         0.0207
       6    H4      20.865558   20.188659   24.655248 H          1 MOL1         0.0950
       7    H5      19.256538   20.639528   25.240851 H          1 MOL1         0.0950
       8    C2      19.233125   19.447025   23.434622 C.3        1 MOL1        -0.1415
       9    H6      18.212618   19.069561   23.582137 H          1 MOL1         0.0976
      10    H7      19.147039   20.361132   22.834004 H          1 MOL1         0.0976
      11    C3      20.082820   18.399084   22.672884 C.3        1 MOL1        -0.1375
      12    H8      20.201069   17.503002   23.296143 H          1 MOL1         0.0976
      13    H9      21.096176   18.790029   22.511193 H          1 MOL1         0.0976
      14    C4      19.462061   17.962442   21.320377 C.3        1 MOL1        -0.1375
      15    H10     20.101795   17.188958   20.873521 H          1 MOL1         0.0976
      16    H11     18.494689   17.477768   21.511406 H          1 MOL1         0.0976
      17    C5      19.255574   19.098183   20.285638 C.3        1 MOL1        -0.1350
      18    H12     18.518470   19.822289   20.657508 H          1 MOL1         0.0976
      19    H13     18.817039   18.665612   19.375524 H          1 MOL1         0.0976
      20    C6      20.562606   19.831121   19.907375 C.3        1 MOL1        -0.2365
      21    H14     20.377772   20.557952   19.105868 H          1 MOL1         0.0987
      22    H15     21.322591   19.123843   19.550822 H          1 MOL1         0.0987
      23    H16     20.977306   20.380394   20.761753 H          1 MOL1         0.0987
@<TRIPOS>BOND
    1     1     2    1
    2     1     3    1
    3     1     4    1
    4     1     5    1
    5     5     6    1
    6     5     7    1
    7     5     8    1
    8     8     9    1
    9     8    10    1
   10     8    11    1
   11    11    12    1
   12    11    13    1
   13    11    14    1
   14    14    15    1
   15    14    16    1
   16    14    17    1
   17    17    18    1
   18    17    19    1
   19    17    20    1
   20    20    21    1
   21    20    22    1
   22    20    23    1
@<TRIPOS>SUBSTRUCTURE
       1 MOL1            1 RESIDUE      1      MOL     
@<SCITEGIC>MOL_PROPERTY
VM2 Rank
SciTegic.value.IntegerValue
27

@<SCITEGIC>MOL_PROPERTY
Conf_Id
SciTegic.value.IntegerValue
293

@<SCITEGIC>MOL_PROPERTY
Probability
SciTegic.value.DoubleValue
0.95

@<SCITEGIC>MOL_PROPERTY
Sum Probability
SciTegic.value.DoubleValue
89.43

@<SCITEGIC>MOL_PROPERTY
Delta G
SciTegic.value.DoubleValue
1.560

@<SCITEGIC>MOL_PROPERTY
G
SciTegic.value.DoubleValue
39.476

@<SCITEGIC>MOL_PROPERTY
E
SciTegic.value.DoubleValue
11.438

@<SCITEGIC>MOL_PROPERTY
-TS
SciTegic.value.DoubleValue
28.039

@<SCITEGIC>MOL_PROPERTY
U+W
SciTegic.value.DoubleValue
-7.341

@<SCITEGIC>MOL_PROPERTY
U
SciTegic.value.DoubleValue
48.503

@<SCITEGIC>MOL_PROPERTY
W
SciTegic.value.DoubleValue
-55.844

@<SCITEGIC>MOL_PROPERTY
W(PB)
SciTegic.value.DoubleValue
-57.925

@<SCITEGIC>MOL_PROPERTY
W(SA)
SciTegic.value.DoubleValue
2.081

@<SCITEGIC>MOL_PROPERTY
Valence
SciTegic.value.DoubleValue
2.824

@<SCITEGIC>MOL_PROPERTY
Coulomb
SciTegic.value.DoubleValue
44.990

@<SCITEGIC>MOL_PROPERTY
VdW
SciTegic.value.DoubleValue
0.689

@<SCITEGIC>MOL_PROPERTY
VdW6
SciTegic.value.DoubleValue
-6.667

@<SCITEGIC>MOL_PROPERTY
VdW12
SciTegic.value.DoubleValue
7.356

@<SCITEGIC>MOL_PROPERTY
Bond
SciTegic.value.DoubleValue
0.219

@<SCITEGIC>MOL_PROPERTY
Angle
SciTegic.value.DoubleValue
1.118

@<SCITEGIC>MOL_PROPERTY
Pdih
SciTegic.value.DoubleValue
1.487

@<SCITEGIC>MOL_PROPERTY
Idih
SciTegic.value.DoubleValue
0.000

@<SCITEGIC>MOL_PROPERTY
Tether
SciTegic.value.DoubleValue
0.000

@<TRIPOS>MOLECULE
guest-2_vm2.mol2 : vm2 ligand conformer 28
          23          22           1
SMALL
USER_CHARGES
 
@<TRIPOS>ATOM
       1    N1      20.073877   18.158430   25.293883 N.4        1 MOL1        -0.5940
       2    H1      20.889232   17.716087   25.731252 H          1 MOL1         0.3649
       3    H2      19.589796   17.433190   24.756149 H          1 MOL1         0.3649
       4    H3      19.445749   18.443631   26.051920 H          1 MOL1         0.3649
       5    C1      20.470200   19.332025   24.419903 C.3        1 MOL1         0.0207
       6    H4      21.162802   18.968339   23.656371 H          1 MOL1         0.0950
       7    H5      21.004055   20.050037   25.048354 H          1 MOL1         0.0950
       8    C2      19.273249   20.032121   23.745394 C.3        1 MOL1        -0.1415
       9    H6      18.602317   20.423412   24.521575 H          1 MOL1         0.0976
      10    H7      19.639174   20.909484   23.196990 H          1 MOL1         0.0976
      11    C3      18.465640   19.116972   22.787648 C.3        1 MOL1        -0.1375
      12    H8      17.663229   19.708553   22.325726 H          1 MOL1         0.0976
      13    H9      17.959640   18.337392   23.372841 H          1 MOL1         0.0976
      14    C4      19.302219   18.440435   21.670851 C.3        1 MOL1        -0.1375
      15    H10     20.050568   17.770016   22.114024 H          1 MOL1         0.0976
      16    H11     18.634772   17.799117   21.078768 H          1 MOL1         0.0976
      17    C5      19.999748   19.446865   20.725629 C.3        1 MOL1        -0.1350
      18    H12     20.725183   20.052138   21.285384 H          1 MOL1         0.0976
      19    H13     19.256828   20.142351   20.310801 H          1 MOL1         0.0976
      20    C6      20.731067   18.730153   19.570692 C.3        1 MOL1        -0.2365
      21    H14     21.502111   18.049274   19.954229 H          1 MOL1         0.0987
      22    H15     21.221962   19.458087   18.911795 H          1 MOL1         0.0987
      23    H16     20.029868   18.144545   18.961943 H          1 MOL1         0.0987
@<TRIPOS>BOND
    1     1     2    1
    2     1     3    1
    3     1     4    1
    4     1     5    1
    5     5     6    1
    6     5     7    1
    7     5     8    1
    8     8     9    1
    9     8    10    1
   10     8    11    1
   11    11    12    1
   12    11    13    1
   13    11    14    1
   14    14    15    1
   15    14    16    1
   16    14    17    1
   17    17    18    1
   18    17    19    1
   19    17    20    1
   20    20    21    1
   21    20    22    1
   22    20    23    1
@<TRIPOS>SUBSTRUCTURE
       1 MOL1            1 RESIDUE      1      MOL     
@<SCITEGIC>MOL_PROPERTY
VM2 Rank
SciTegic.value.IntegerValue
28

@<SCITEGIC>MOL_PROPERTY
Conf_Id
SciTegic.value.IntegerValue
299

@<SCITEGIC>MOL_PROPERTY
Probability
SciTegic.value.DoubleValue
0.90

@<SCITEGIC>MOL_PROPERTY
Sum Probability
SciTegic.value.DoubleValue
90.33

@<SCITEGIC>MOL_PROPERTY
Delta G
SciTegic.value.DoubleValue
1.591

@<SCITEGIC>MOL_PROPERTY
G
SciTegic.value.DoubleValue
39.507

@<SCITEGIC>MOL_PROPERTY
E
SciTegic.value.DoubleValue
11.447

@<SCITEGIC>MOL_PROPERTY
-TS
SciTegic.value.DoubleValue
28.060

@<SCITEGIC>MOL_PROPERTY
U+W
SciTegic.value.DoubleValue
-7.333

@<SCITEGIC>MOL_PROPERTY
U
SciTegic.value.DoubleValue
48.591

@<SCITEGIC>MOL_PROPERTY
W
SciTegic.value.DoubleValue
-55.923

@<SCITEGIC>MOL_PROPERTY
W(PB)
SciTegic.value.DoubleValue
-58.013

@<SCITEGIC>MOL_PROPERTY
W(SA)
SciTegic.value.DoubleValue
2.090

@<SCITEGIC>MOL_PROPERTY
Valence
SciTegic.value.DoubleValue
2.601

@<SCITEGIC>MOL_PROPERTY
Coulomb
SciTegic.value.DoubleValue
45.520

@<SCITEGIC>MOL_PROPERTY
VdW
SciTegic.value.DoubleValue
0.470

@<SCITEGIC>MOL_PROPERTY
VdW6
SciTegic.value.DoubleValue
-6.867

@<SCITEGIC>MOL_PROPERTY
VdW12
SciTegic.value.DoubleValue
7.336

@<SCITEGIC>MOL_PROPERTY
Bond
SciTegic.value.DoubleValue
0.205

@<SCITEGIC>MOL_PROPERTY
Angle
SciTegic.value.DoubleValue
0.962

@<SCITEGIC>MOL_PROPERTY
Pdih
SciTegic.value.DoubleValue
1.434

@<SCITEGIC>MOL_PROPERTY
Idih
SciTegic.value.DoubleValue
0.000

@<SCITEGIC>MOL_PROPERTY
Tether
SciTegic.value.DoubleValue
0.000

@<TRIPOS>MOLECULE
guest-2_vm2.mol2 : vm2 ligand conformer 29
          23          22           1
SMALL
USER_CHARGES
 
@<TRIPOS>ATOM
       1    N1      20.230665   19.840579   25.350217 N.4        1 MOL1        -0.5940
       2    H1      20.683115   20.344368   24.581395 H          1 MOL1         0.3649
       3    H2      20.956093   19.290491   25.821079 H          1 MOL1         0.3649
       4    H3      19.905753   20.544474   26.021632 H          1 MOL1         0.3649
       5    C1      19.094523   18.967522   24.854994 C.3        1 MOL1         0.0207
       6    H4      18.345166   19.615517   24.393412 H          1 MOL1         0.0950
       7    H5      18.637967   18.489976   25.726217 H          1 MOL1         0.0950
       8    C2      19.537765   17.883026   23.851659 C.3        1 MOL1        -0.1415
       9    H6      20.250968   17.209389   24.344972 H          1 MOL1         0.0976
      10    H7      18.666701   17.267389   23.590702 H          1 MOL1         0.0976
      11    C3      20.175594   18.440869   22.554109 C.3        1 MOL1        -0.1375
      12    H8      20.488788   17.589376   21.936256 H          1 MOL1         0.0976
      13    H9      21.091579   18.995924   22.796249 H          1 MOL1         0.0976
      14    C4      19.213837   19.344652   21.741317 C.3        1 MOL1        -0.1375
      15    H10     18.309942   18.779154   21.476071 H          1 MOL1         0.0976
      16    H11     18.880873   20.183510   22.366462 H          1 MOL1         0.0976
      17    C5      19.853345   19.927008   20.457443 C.3        1 MOL1        -0.1350
      18    H12     20.752304   20.503060   20.717757 H          1 MOL1         0.0976
      19    H13     19.150338   20.642113   20.007702 H          1 MOL1         0.0976
      20    C6      20.210271   18.853343   19.404262 C.3        1 MOL1        -0.2365
      21    H14     20.567103   19.326072   18.480068 H          1 MOL1         0.0987
      22    H15     19.334597   18.241576   19.151394 H          1 MOL1         0.0987
      23    H16     21.005080   18.186467   19.760349 H          1 MOL1         0.0987
@<TRIPOS>BOND
    1     1     2    1
    2     1     3    1
    3     1     4    1
    4     1     5    1
    5     5     6    1
    6     5     7    1
    7     5     8    1
    8     8     9    1
    9     8    10    1
   10     8    11    1
   11    11    12    1
   12    11    13    1
   13    11    14    1
   14    14    15    1
   15    14    16    1
   16    14    17    1
   17    17    18    1
   18    17    19    1
   19    17    20    1
   20    20    21    1
   21    20    22    1
   22    20    23    1
@<TRIPOS>SUBSTRUCTURE
       1 MOL1            1 RESIDUE      1      MOL     
@<SCITEGIC>MOL_PROPERTY
VM2 Rank
SciTegic.value.IntegerValue
29

@<SCITEGIC>MOL_PROPERTY
Conf_Id
SciTegic.value.IntegerValue
264

@<SCITEGIC>MOL_PROPERTY
Probability
SciTegic.value.DoubleValue
0.89

@<SCITEGIC>MOL_PROPERTY
Sum Probability
SciTegic.value.DoubleValue
91.21

@<SCITEGIC>MOL_PROPERTY
Delta G
SciTegic.value.DoubleValue
1.600

@<SCITEGIC>MOL_PROPERTY
G
SciTegic.value.DoubleValue
39.516

@<SCITEGIC>MOL_PROPERTY
E
SciTegic.value.DoubleValue
11.626

@<SCITEGIC>MOL_PROPERTY
-TS
SciTegic.value.DoubleValue
27.890

@<SCITEGIC>MOL_PROPERTY
U+W
SciTegic.value.DoubleValue
-7.153

@<SCITEGIC>MOL_PROPERTY
U
SciTegic.value.DoubleValue
48.727

@<SCITEGIC>MOL_PROPERTY
W
SciTegic.value.DoubleValue
-55.880

@<SCITEGIC>MOL_PROPERTY
W(PB)
SciTegic.value.DoubleValue
-57.960

@<SCITEGIC>MOL_PROPERTY
W(SA)
SciTegic.value.DoubleValue
2.080

@<SCITEGIC>MOL_PROPERTY
Valence
SciTegic.value.DoubleValue
2.671

@<SCITEGIC>MOL_PROPERTY
Coulomb
SciTegic.value.DoubleValue
45.371

@<SCITEGIC>MOL_PROPERTY
VdW
SciTegic.value.DoubleValue
0.684

@<SCITEGIC>MOL_PROPERTY
VdW6
SciTegic.value.DoubleValue
-6.511

@<SCITEGIC>MOL_PROPERTY
VdW12
SciTegic.value.DoubleValue
7.195

@<SCITEGIC>MOL_PROPERTY
Bond
SciTegic.value.DoubleValue
0.203

@<SCITEGIC>MOL_PROPERTY
Angle
SciTegic.value.DoubleValue
0.915

@<SCITEGIC>MOL_PROPERTY
Pdih
SciTegic.value.DoubleValue
1.554

@<SCITEGIC>MOL_PROPERTY
Idih
SciTegic.value.DoubleValue
0.000

@<SCITEGIC>MOL_PROPERTY
Tether
SciTegic.value.DoubleValue
0.000

@<TRIPOS>MOLECULE
guest-2_vm2.mol2 : vm2 ligand conformer 30
          23          22           1
SMALL
USER_CHARGES
 
@<TRIPOS>ATOM
       1    N1      20.354268   17.878890   24.946910 N.4        1 MOL1        -0.5940
       2    H1      19.590934   17.357360   25.389515 H          1 MOL1         0.3649
       3    H2      21.194323   17.717776   25.512773 H          1 MOL1         0.3649
       4    H3      20.521939   17.452577   24.030523 H          1 MOL1         0.3649
       5    C1      20.031224   19.355165   24.825844 C.3        1 MOL1         0.0207
       6    H4      20.893495   19.855091   24.377202 H          1 MOL1         0.0950
       7    H5      19.898117   19.750885   25.836392 H          1 MOL1         0.0950
       8    C2      18.767105   19.646570   23.991592 C.3        1 MOL1        -0.1415
       9    H6      17.900087   19.179281   24.477095 H          1 MOL1         0.0976
      10    H7      18.578422   20.728269   24.004499 H          1 MOL1         0.0976
      11    C3      18.855876   19.160707   22.523044 C.3        1 MOL1        -0.1375
      12    H8      17.909349   19.397918   22.018141 H          1 MOL1         0.0976
      13    H9      18.946924   18.067338   22.504139 H          1 MOL1         0.0976
      14    C4      20.025652   19.808114   21.739488 C.3        1 MOL1        -0.1375
      15    H10     19.964419   20.900361   21.842031 H          1 MOL1         0.0976
      16    H11     20.987021   19.509430   22.178222 H          1 MOL1         0.0976
      17    C5      20.024427   19.455028   20.232598 C.3        1 MOL1        -0.1350
      18    H12     20.814236   20.034163   19.733959 H          1 MOL1         0.0976
      19    H13     19.076339   19.772841   19.776632 H          1 MOL1         0.0976
      20    C6      20.257448   17.952526   19.954524 C.3        1 MOL1        -0.2365
      21    H14     21.186892   17.603548   20.422806 H          1 MOL1         0.0987
      22    H15     20.336913   17.769815   18.875063 H          1 MOL1         0.0987
      23    H16     19.429899   17.339300   20.332053 H          1 MOL1         0.0987
@<TRIPOS>BOND
    1     1     2    1
    2     1     3    1
    3     1     4    1
    4     1     5    1
    5     5     6    1
    6     5     7    1
    7     5     8    1
    8     8     9    1
    9     8    10    1
   10     8    11    1
   11    11    12    1
   12    11    13    1
   13    11    14    1
   14    14    15    1
   15    14    16    1
   16    14    17    1
   17    17    18    1
   18    17    19    1
   19    17    20    1
   20    20    21    1
   21    20    22    1
   22    20    23    1
@<TRIPOS>SUBSTRUCTURE
       1 MOL1            1 RESIDUE      1      MOL     
@<SCITEGIC>MOL_PROPERTY
VM2 Rank
SciTegic.value.IntegerValue
30

@<SCITEGIC>MOL_PROPERTY
Conf_Id
SciTegic.value.IntegerValue
521

@<SCITEGIC>MOL_PROPERTY
Probability
SciTegic.value.DoubleValue
0.88

@<SCITEGIC>MOL_PROPERTY
Sum Probability
SciTegic.value.DoubleValue
92.10

@<SCITEGIC>MOL_PROPERTY
Delta G
SciTegic.value.DoubleValue
1.602

@<SCITEGIC>MOL_PROPERTY
G
SciTegic.value.DoubleValue
39.518

@<SCITEGIC>MOL_PROPERTY
E
SciTegic.value.DoubleValue
11.590

@<SCITEGIC>MOL_PROPERTY
-TS
SciTegic.value.DoubleValue
27.929

@<SCITEGIC>MOL_PROPERTY
U+W
SciTegic.value.DoubleValue
-7.190

@<SCITEGIC>MOL_PROPERTY
U
SciTegic.value.DoubleValue
48.775

@<SCITEGIC>MOL_PROPERTY
W
SciTegic.value.DoubleValue
-55.965

@<SCITEGIC>MOL_PROPERTY
W(PB)
SciTegic.value.DoubleValue
-58.038

@<SCITEGIC>MOL_PROPERTY
W(SA)
SciTegic.value.DoubleValue
2.073

@<SCITEGIC>MOL_PROPERTY
Valence
SciTegic.value.DoubleValue
2.602

@<SCITEGIC>MOL_PROPERTY
Coulomb
SciTegic.value.DoubleValue
45.581

@<SCITEGIC>MOL_PROPERTY
VdW
SciTegic.value.DoubleValue
0.592

@<SCITEGIC>MOL_PROPERTY
VdW6
SciTegic.value.DoubleValue
-6.617

@<SCITEGIC>MOL_PROPERTY
VdW12
SciTegic.value.DoubleValue
7.209

@<SCITEGIC>MOL_PROPERTY
Bond
SciTegic.value.DoubleValue
0.196

@<SCITEGIC>MOL_PROPERTY
Angle
SciTegic.value.DoubleValue
0.832

@<SCITEGIC>MOL_PROPERTY
Pdih
SciTegic.value.DoubleValue
1.574

@<SCITEGIC>MOL_PROPERTY
Idih
SciTegic.value.DoubleValue
0.000

@<SCITEGIC>MOL_PROPERTY
Tether
SciTegic.value.DoubleValue
0.000

@<TRIPOS>MOLECULE
guest-2_vm2.mol2 : vm2 ligand conformer 31
          23          22           1
SMALL
USER_CHARGES
 
@<TRIPOS>ATOM
       1    N1      18.646459   19.182548   25.277818 N.4        1 MOL1        -0.5940
       2    H1      18.031997   19.243192   24.460288 H          1 MOL1         0.3649
       3    H2      18.324736   19.887748   25.949399 H          1 MOL1         0.3649
       4    H3      18.489169   18.265781   25.708346 H          1 MOL1         0.3649
       5    C1      20.100763   19.385526   24.900861 C.3        1 MOL1         0.0207
       6    H4      20.691603   19.343067   25.819900 H          1 MOL1         0.0950
       7    H5      20.204876   20.388041   24.478231 H          1 MOL1         0.0950
       8    C2      20.634343   18.338553   23.901651 C.3        1 MOL1        -0.1415
       9    H6      21.702059   18.528422   23.729050 H          1 MOL1         0.0976
      10    H7      20.571500   17.342495   24.359607 H          1 MOL1         0.0976
      11    C3      19.892299   18.323079   22.541218 C.3        1 MOL1        -0.1375
      12    H8      18.837360   18.059167   22.693538 H          1 MOL1         0.0976
      13    H9      20.322579   17.520257   21.928671 H          1 MOL1         0.0976
      14    C4      19.991627   19.667799   21.776828 C.3        1 MOL1        -0.1375
      15    H10     19.583608   20.475442   22.398588 H          1 MOL1         0.0976
      16    H11     21.047249   19.916538   21.600867 H          1 MOL1         0.0976
      17    C5      19.229967   19.667988   20.429121 C.3        1 MOL1        -0.1350
      18    H12     19.252748   20.684746   20.012533 H          1 MOL1         0.0976
      19    H13     18.170749   19.430261   20.600204 H          1 MOL1         0.0976
      20    C6      19.820541   18.691509   19.386503 C.3        1 MOL1        -0.2365
      21    H14     20.888084   18.887337   19.222158 H          1 MOL1         0.0987
      22    H15     19.307089   18.802635   18.422681 H          1 MOL1         0.0987
      23    H16     19.706456   17.646880   19.701112 H          1 MOL1         0.0987
@<TRIPOS>BOND
    1     1     2    1
    2     1     3    1
    3     1     4    1
    4     1     5    1
    5     5     6    1
    6     5     7    1
    7     5     8    1
    8     8     9    1
    9     8    10    1
   10     8    11    1
   11    11    12    1
   12    11    13    1
   13    11    14    1
   14    14    15    1
   15    14    16    1
   16    14    17    1
   17    17    18    1
   18    17    19    1
   19    17    20    1
   20    20    21    1
   21    20    22    1
   22    20    23    1
@<TRIPOS>SUBSTRUCTURE
       1 MOL1            1 RESIDUE      1      MOL     
@<SCITEGIC>MOL_PROPERTY
VM2 Rank
SciTegic.value.IntegerValue
31

@<SCITEGIC>MOL_PROPERTY
Conf_Id
SciTegic.value.IntegerValue
72

@<SCITEGIC>MOL_PROPERTY
Probability
SciTegic.value.DoubleValue
0.85

@<SCITEGIC>MOL_PROPERTY
Sum Probability
SciTegic.value.DoubleValue
92.95

@<SCITEGIC>MOL_PROPERTY
Delta G
SciTegic.value.DoubleValue
1.624

@<SCITEGIC>MOL_PROPERTY
G
SciTegic.value.DoubleValue
39.540

@<SCITEGIC>MOL_PROPERTY
E
SciTegic.value.DoubleValue
11.649

@<SCITEGIC>MOL_PROPERTY
-TS
SciTegic.value.DoubleValue
27.890

@<SCITEGIC>MOL_PROPERTY
U+W
SciTegic.value.DoubleValue
-7.130

@<SCITEGIC>MOL_PROPERTY
U
SciTegic.value.DoubleValue
48.727

@<SCITEGIC>MOL_PROPERTY
W
SciTegic.value.DoubleValue
-55.857

@<SCITEGIC>MOL_PROPERTY
W(PB)
SciTegic.value.DoubleValue
-57.937

@<SCITEGIC>MOL_PROPERTY
W(SA)
SciTegic.value.DoubleValue
2.080

@<SCITEGIC>MOL_PROPERTY
Valence
SciTegic.value.DoubleValue
2.671

@<SCITEGIC>MOL_PROPERTY
Coulomb
SciTegic.value.DoubleValue
45.371

@<SCITEGIC>MOL_PROPERTY
VdW
SciTegic.value.DoubleValue
0.684

@<SCITEGIC>MOL_PROPERTY
VdW6
SciTegic.value.DoubleValue
-6.511

@<SCITEGIC>MOL_PROPERTY
VdW12
SciTegic.value.DoubleValue
7.196

@<SCITEGIC>MOL_PROPERTY
Bond
SciTegic.value.DoubleValue
0.203

@<SCITEGIC>MOL_PROPERTY
Angle
SciTegic.value.DoubleValue
0.915

@<SCITEGIC>MOL_PROPERTY
Pdih
SciTegic.value.DoubleValue
1.554

@<SCITEGIC>MOL_PROPERTY
Idih
SciTegic.value.DoubleValue
0.000

@<SCITEGIC>MOL_PROPERTY
Tether
SciTegic.value.DoubleValue
0.000

@<TRIPOS>MOLECULE
guest-2_vm2.mol2 : vm2 ligand conformer 32
          23          22           1
SMALL
USER_CHARGES
 
@<TRIPOS>ATOM
       1    N1      19.951828   18.107734   25.288438 N.4        1 MOL1        -0.5940
       2    H1      20.131875   18.729293   26.083267 H          1 MOL1         0.3649
       3    H2      20.846857   17.956264   24.813625 H          1 MOL1         0.3649
       4    H3      19.658860   17.204282   25.675357 H          1 MOL1         0.3649
       5    C1      18.910490   18.683042   24.348824 C.3        1 MOL1         0.0207
       6    H4      17.978597   18.791207   24.910402 H          1 MOL1         0.0950
       7    H5      18.741220   17.960672   23.546031 H          1 MOL1         0.0950
       8    C2      19.307136   20.046186   23.746912 C.3        1 MOL1        -0.1415
       9    H6      18.471595   20.423630   23.143734 H          1 MOL1         0.0976
      10    H7      19.440736   20.772249   24.559745 H          1 MOL1         0.0976
      11    C3      20.596258   20.003420   22.884741 C.3        1 MOL1        -0.1375
      12    H8      21.458006   19.792899   23.532278 H          1 MOL1         0.0976
      13    H9      20.776385   21.003806   22.467624 H          1 MOL1         0.0976
      14    C4      20.574782   18.969898   21.728810 C.3        1 MOL1        -0.1375
      15    H10     21.543234   19.009323   21.211237 H          1 MOL1         0.0976
      16    H11     20.489987   17.952781   22.133991 H          1 MOL1         0.0976
      17    C5      19.445815   19.216353   20.700417 C.3        1 MOL1        -0.1350
      18    H12     19.506775   20.246426   20.322337 H          1 MOL1         0.0976
      19    H13     18.464704   19.111376   21.182432 H          1 MOL1         0.0976
      20    C6      19.529690   18.230366   19.515858 C.3        1 MOL1        -0.2365
      21    H14     19.441146   17.191685   19.860104 H          1 MOL1         0.0987
      22    H15     20.483630   18.333691   18.982458 H          1 MOL1         0.0987
      23    H16     18.720708   18.417424   18.797825 H          1 MOL1         0.0987
@<TRIPOS>BOND
    1     1     2    1
    2     1     3    1
    3     1     4    1
    4     1     5    1
    5     5     6    1
    6     5     7    1
    7     5     8    1
    8     8     9    1
    9     8    10    1
   10     8    11    1
   11    11    12    1
   12    11    13    1
   13    11    14    1
   14    14    15    1
   15    14    16    1
   16    14    17    1
   17    17    18    1
   18    17    19    1
   19    17    20    1
   20    20    21    1
   21    20    22    1
   22    20    23    1
@<TRIPOS>SUBSTRUCTURE
       1 MOL1            1 RESIDUE      1      MOL     
@<SCITEGIC>MOL_PROPERTY
VM2 Rank
SciTegic.value.IntegerValue
32

@<SCITEGIC>MOL_PROPERTY
Conf_Id
SciTegic.value.IntegerValue
714

@<SCITEGIC>MOL_PROPERTY
Probability
SciTegic.value.DoubleValue
0.83

@<SCITEGIC>MOL_PROPERTY
Sum Probability
SciTegic.value.DoubleValue
93.78

@<SCITEGIC>MOL_PROPERTY
Delta G
SciTegic.value.DoubleValue
1.638

@<SCITEGIC>MOL_PROPERTY
G
SciTegic.value.DoubleValue
39.554

@<SCITEGIC>MOL_PROPERTY
E
SciTegic.value.DoubleValue
11.494

@<SCITEGIC>MOL_PROPERTY
-TS
SciTegic.value.DoubleValue
28.060

@<SCITEGIC>MOL_PROPERTY
U+W
SciTegic.value.DoubleValue
-7.285

@<SCITEGIC>MOL_PROPERTY
U
SciTegic.value.DoubleValue
48.590

@<SCITEGIC>MOL_PROPERTY
W
SciTegic.value.DoubleValue
-55.875

@<SCITEGIC>MOL_PROPERTY
W(PB)
SciTegic.value.DoubleValue
-57.963

@<SCITEGIC>MOL_PROPERTY
W(SA)
SciTegic.value.DoubleValue
2.087

@<SCITEGIC>MOL_PROPERTY
Valence
SciTegic.value.DoubleValue
2.601

@<SCITEGIC>MOL_PROPERTY
Coulomb
SciTegic.value.DoubleValue
45.520

@<SCITEGIC>MOL_PROPERTY
VdW
SciTegic.value.DoubleValue
0.469

@<SCITEGIC>MOL_PROPERTY
VdW6
SciTegic.value.DoubleValue
-6.867

@<SCITEGIC>MOL_PROPERTY
VdW12
SciTegic.value.DoubleValue
7.336

@<SCITEGIC>MOL_PROPERTY
Bond
SciTegic.value.DoubleValue
0.205

@<SCITEGIC>MOL_PROPERTY
Angle
SciTegic.value.DoubleValue
0.962

@<SCITEGIC>MOL_PROPERTY
Pdih
SciTegic.value.DoubleValue
1.434

@<SCITEGIC>MOL_PROPERTY
Idih
SciTegic.value.DoubleValue
0.000

@<SCITEGIC>MOL_PROPERTY
Tether
SciTegic.value.DoubleValue
0.000

@<TRIPOS>MOLECULE
guest-2_vm2.mol2 : vm2 ligand conformer 33
          23          22           1
SMALL
USER_CHARGES
 
@<TRIPOS>ATOM
       1    N1      19.675181   18.605141   25.786610 N.4        1 MOL1        -0.5940
       2    H1      19.119519   18.502256   26.642525 H          1 MOL1         0.3649
       3    H2      20.577951   19.004333   26.062818 H          1 MOL1         0.3649
       4    H3      19.856945   17.661114   25.432772 H          1 MOL1         0.3649
       5    C1      18.969124   19.466487   24.757543 C.3        1 MOL1         0.0207
       6    H4      18.772677   20.438193   25.218808 H          1 MOL1         0.0950
       7    H5      18.008172   18.999626   24.525111 H          1 MOL1         0.0950
       8    C2      19.773610   19.671922   23.459255 C.3        1 MOL1        -0.1415
       9    H6      19.233277   20.397018   22.837950 H          1 MOL1         0.0976
      10    H7      20.745671   20.123576   23.697542 H          1 MOL1         0.0976
      11    C3      19.978426   18.355650   22.668126 C.3        1 MOL1        -0.1375
      12    H8      19.002939   17.919050   22.415778 H          1 MOL1         0.0976
      13    H9      20.481618   17.619742   23.308934 H          1 MOL1         0.0976
      14    C4      20.828207   18.530886   21.382653 C.3        1 MOL1        -0.1375
      15    H10     21.835520   18.867841   21.663706 H          1 MOL1         0.0976
      16    H11     20.961593   17.546725   20.912704 H          1 MOL1         0.0976
      17    C5      20.249186   19.511637   20.330945 C.3        1 MOL1        -0.1350
      18    H12     20.933918   19.546489   19.472071 H          1 MOL1         0.0976
      19    H13     20.224850   20.532325   20.735349 H          1 MOL1         0.0976
      20    C6      18.842266   19.115277   19.828868 C.3        1 MOL1        -0.2365
      21    H14     18.519484   19.784773   19.021125 H          1 MOL1         0.0987
      22    H15     18.095952   19.181356   20.630297 H          1 MOL1         0.0987
      23    H16     18.837459   18.089784   19.437345 H          1 MOL1         0.0987
@<TRIPOS>BOND
    1     1     2    1
    2     1     3    1
    3     1     4    1
    4     1     5    1
    5     5     6    1
    6     5     7    1
    7     5     8    1
    8     8     9    1
    9     8    10    1
   10     8    11    1
   11    11    12    1
   12    11    13    1
   13    11    14    1
   14    14    15    1
   15    14    16    1
   16    14    17    1
   17    17    18    1
   18    17    19    1
   19    17    20    1
   20    20    21    1
   21    20    22    1
   22    20    23    1
@<TRIPOS>SUBSTRUCTURE
       1 MOL1            1 RESIDUE      1      MOL     
@<SCITEGIC>MOL_PROPERTY
VM2 Rank
SciTegic.value.IntegerValue
33

@<SCITEGIC>MOL_PROPERTY
Conf_Id
SciTegic.value.IntegerValue
292

@<SCITEGIC>MOL_PROPERTY
Probability
SciTegic.value.DoubleValue
0.80

@<SCITEGIC>MOL_PROPERTY
Sum Probability
SciTegic.value.DoubleValue
94.57

@<SCITEGIC>MOL_PROPERTY
Delta G
SciTegic.value.DoubleValue
1.663

@<SCITEGIC>MOL_PROPERTY
G
SciTegic.value.DoubleValue
39.579

@<SCITEGIC>MOL_PROPERTY
E
SciTegic.value.DoubleValue
11.541

@<SCITEGIC>MOL_PROPERTY
-TS
SciTegic.value.DoubleValue
28.038

@<SCITEGIC>MOL_PROPERTY
U+W
SciTegic.value.DoubleValue
-7.238

@<SCITEGIC>MOL_PROPERTY
U
SciTegic.value.DoubleValue
48.503

@<SCITEGIC>MOL_PROPERTY
W
SciTegic.value.DoubleValue
-55.741

@<SCITEGIC>MOL_PROPERTY
W(PB)
SciTegic.value.DoubleValue
-57.819

@<SCITEGIC>MOL_PROPERTY
W(SA)
SciTegic.value.DoubleValue
2.078

@<SCITEGIC>MOL_PROPERTY
Valence
SciTegic.value.DoubleValue
2.824

@<SCITEGIC>MOL_PROPERTY
Coulomb
SciTegic.value.DoubleValue
44.990

@<SCITEGIC>MOL_PROPERTY
VdW
SciTegic.value.DoubleValue
0.689

@<SCITEGIC>MOL_PROPERTY
VdW6
SciTegic.value.DoubleValue
-6.667

@<SCITEGIC>MOL_PROPERTY
VdW12
SciTegic.value.DoubleValue
7.356

@<SCITEGIC>MOL_PROPERTY
Bond
SciTegic.value.DoubleValue
0.219

@<SCITEGIC>MOL_PROPERTY
Angle
SciTegic.value.DoubleValue
1.118

@<SCITEGIC>MOL_PROPERTY
Pdih
SciTegic.value.DoubleValue
1.487

@<SCITEGIC>MOL_PROPERTY
Idih
SciTegic.value.DoubleValue
0.000

@<SCITEGIC>MOL_PROPERTY
Tether
SciTegic.value.DoubleValue
0.000

@<TRIPOS>MOLECULE
guest-2_vm2.mol2 : vm2 ligand conformer 34
          23          22           1
SMALL
USER_CHARGES
 
@<TRIPOS>ATOM
       1    N1      19.980476   17.723247   24.929828 N.4        1 MOL1        -0.5940
       2    H1      20.236031   17.333573   24.017430 H          1 MOL1         0.3649
       3    H2      19.461379   16.996214   25.433625 H          1 MOL1         0.3649
       4    H3      20.851049   17.881991   25.447008 H          1 MOL1         0.3649
       5    C1      19.170651   18.996851   24.786600 C.3        1 MOL1         0.0207
       6    H4      18.905284   19.337482   25.791124 H          1 MOL1         0.0950
       7    H5      18.246409   18.752971   24.256490 H          1 MOL1         0.0950
       8    C2      19.915734   20.124794   24.043980 C.3        1 MOL1        -0.1415
       9    H6      19.280798   21.020698   24.036552 H          1 MOL1         0.0976
      10    H7      20.817325   20.393853   24.610134 H          1 MOL1         0.0976
      11    C3      20.311595   19.766801   22.589430 C.3        1 MOL1        -0.1375
      12    H8      21.023728   18.932006   22.598833 H          1 MOL1         0.0976
      13    H9      20.846759   20.620886   22.152111 H          1 MOL1         0.0976
      14    C4      19.093134   19.419939   21.696954 C.3        1 MOL1        -0.1375
      15    H10     18.596201   18.514167   22.069198 H          1 MOL1         0.0976
      16    H11     18.354421   20.230149   21.768571 H          1 MOL1         0.0976
      17    C5      19.461062   19.220489   20.206908 C.3        1 MOL1        -0.1350
      18    H12     19.936579   20.130849   19.815874 H          1 MOL1         0.0976
      19    H13     18.535417   19.085579   19.630006 H          1 MOL1         0.0976
      20    C6      20.383347   18.004879   19.960301 C.3        1 MOL1        -0.2365
      21    H14     19.942010   17.085345   20.366032 H          1 MOL1         0.0987
      22    H15     21.369012   18.146371   20.420577 H          1 MOL1         0.0987
      23    H16     20.540826   17.854632   18.884401 H          1 MOL1         0.0987
@<TRIPOS>BOND
    1     1     2    1
    2     1     3    1
    3     1     4    1
    4     1     5    1
    5     5     6    1
    6     5     7    1
    7     5     8    1
    8     8     9    1
    9     8    10    1
   10     8    11    1
   11    11    12    1
   12    11    13    1
   13    11    14    1
   14    14    15    1
   15    14    16    1
   16    14    17    1
   17    17    18    1
   18    17    19    1
   19    17    20    1
   20    20    21    1
   21    20    22    1
   22    20    23    1
@<TRIPOS>SUBSTRUCTURE
       1 MOL1            1 RESIDUE      1      MOL     
@<SCITEGIC>MOL_PROPERTY
VM2 Rank
SciTegic.value.IntegerValue
34

@<SCITEGIC>MOL_PROPERTY
Conf_Id
SciTegic.value.IntegerValue
68

@<SCITEGIC>MOL_PROPERTY
Probability
SciTegic.value.DoubleValue
0.77

@<SCITEGIC>MOL_PROPERTY
Sum Probability
SciTegic.value.DoubleValue
95.35

@<SCITEGIC>MOL_PROPERTY
Delta G
SciTegic.value.DoubleValue
1.682

@<SCITEGIC>MOL_PROPERTY
G
SciTegic.value.DoubleValue
39.598

@<SCITEGIC>MOL_PROPERTY
E
SciTegic.value.DoubleValue
11.669

@<SCITEGIC>MOL_PROPERTY
-TS
SciTegic.value.DoubleValue
27.929

@<SCITEGIC>MOL_PROPERTY
U+W
SciTegic.value.DoubleValue
-7.110

@<SCITEGIC>MOL_PROPERTY
U
SciTegic.value.DoubleValue
48.775

@<SCITEGIC>MOL_PROPERTY
W
SciTegic.value.DoubleValue
-55.886

@<SCITEGIC>MOL_PROPERTY
W(PB)
SciTegic.value.DoubleValue
-57.959

@<SCITEGIC>MOL_PROPERTY
W(SA)
SciTegic.value.DoubleValue
2.073

@<SCITEGIC>MOL_PROPERTY
Valence
SciTegic.value.DoubleValue
2.602

@<SCITEGIC>MOL_PROPERTY
Coulomb
SciTegic.value.DoubleValue
45.582

@<SCITEGIC>MOL_PROPERTY
VdW
SciTegic.value.DoubleValue
0.592

@<SCITEGIC>MOL_PROPERTY
VdW6
SciTegic.value.DoubleValue
-6.616

@<SCITEGIC>MOL_PROPERTY
VdW12
SciTegic.value.DoubleValue
7.209

@<SCITEGIC>MOL_PROPERTY
Bond
SciTegic.value.DoubleValue
0.196

@<SCITEGIC>MOL_PROPERTY
Angle
SciTegic.value.DoubleValue
0.832

@<SCITEGIC>MOL_PROPERTY
Pdih
SciTegic.value.DoubleValue
1.574

@<SCITEGIC>MOL_PROPERTY
Idih
SciTegic.value.DoubleValue
0.000

@<SCITEGIC>MOL_PROPERTY
Tether
SciTegic.value.DoubleValue
0.000

@<TRIPOS>MOLECULE
guest-2_vm2.mol2 : vm2 ligand conformer 35
          23          22           1
SMALL
USER_CHARGES
 
@<TRIPOS>ATOM
       1    N1      20.211622   17.953068   25.245013 N.4        1 MOL1        -0.5940
       2    H1      19.843165   17.072384   24.872002 H          1 MOL1         0.3649
       3    H2      20.362018   17.812558   26.249794 H          1 MOL1         0.3649
       4    H3      21.133051   18.100043   24.822112 H          1 MOL1         0.3649
       5    C1      19.276456   19.115367   24.973615 C.3        1 MOL1         0.0207
       6    H4      19.713850   20.013702   25.417548 H          1 MOL1         0.0950
       7    H5      18.332301   18.908019   25.484626 H          1 MOL1         0.0950
       8    C2      19.005023   19.356304   23.476123 C.3        1 MOL1        -0.1415
       9    H6      18.566694   18.449587   23.040209 H          1 MOL1         0.0976
      10    H7      18.250169   20.148166   23.382094 H          1 MOL1         0.0976
      11    C3      20.279994   19.767967   22.698635 C.3        1 MOL1        -0.1375
      12    H8      21.015218   18.953462   22.719304 H          1 MOL1         0.0976
      13    H9      20.752790   20.616208   23.212813 H          1 MOL1         0.0976
      14    C4      20.001156   20.181109   21.230337 C.3        1 MOL1        -0.1375
      15    H10     19.356211   21.070617   21.225575 H          1 MOL1         0.0976
      16    H11     20.946793   20.493752   20.766413 H          1 MOL1         0.0976
      17    C5      19.348258   19.086383   20.348171 C.3        1 MOL1        -0.1350
      18    H12     19.197966   19.494556   19.338949 H          1 MOL1         0.0976
      19    H13     18.345969   18.842612   20.725134 H          1 MOL1         0.0976
      20    C6      20.193490   17.796803   20.242106 C.3        1 MOL1        -0.2365
      21    H14     19.735218   17.093866   19.534493 H          1 MOL1         0.0987
      22    H15     20.271761   17.286514   21.210077 H          1 MOL1         0.0987
      23    H16     21.208039   18.018148   19.886246 H          1 MOL1         0.0987
@<TRIPOS>BOND
    1     1     2    1
    2     1     3    1
    3     1     4    1
    4     1     5    1
    5     5     6    1
    6     5     7    1
    7     5     8    1
    8     8     9    1
    9     8    10    1
   10     8    11    1
   11    11    12    1
   12    11    13    1
   13    11    14    1
   14    14    15    1
   15    14    16    1
   16    14    17    1
   17    17    18    1
   18    17    19    1
   19    17    20    1
   20    20    21    1
   21    20    22    1
   22    20    23    1
@<TRIPOS>SUBSTRUCTURE
       1 MOL1            1 RESIDUE      1      MOL     
@<SCITEGIC>MOL_PROPERTY
VM2 Rank
SciTegic.value.IntegerValue
35

@<SCITEGIC>MOL_PROPERTY
Conf_Id
SciTegic.value.IntegerValue
104

@<SCITEGIC>MOL_PROPERTY
Probability
SciTegic.value.DoubleValue
0.75

@<SCITEGIC>MOL_PROPERTY
Sum Probability
SciTegic.value.DoubleValue
96.09

@<SCITEGIC>MOL_PROPERTY
Delta G
SciTegic.value.DoubleValue
1.702

@<SCITEGIC>MOL_PROPERTY
G
SciTegic.value.DoubleValue
39.618

@<SCITEGIC>MOL_PROPERTY
E
SciTegic.value.DoubleValue
11.563

@<SCITEGIC>MOL_PROPERTY
-TS
SciTegic.value.DoubleValue
28.055

@<SCITEGIC>MOL_PROPERTY
U+W
SciTegic.value.DoubleValue
-7.216

@<SCITEGIC>MOL_PROPERTY
U
SciTegic.value.DoubleValue
48.781

@<SCITEGIC>MOL_PROPERTY
W
SciTegic.value.DoubleValue
-55.997

@<SCITEGIC>MOL_PROPERTY
W(PB)
SciTegic.value.DoubleValue
-58.047

@<SCITEGIC>MOL_PROPERTY
W(SA)
SciTegic.value.DoubleValue
2.050

@<SCITEGIC>MOL_PROPERTY
Valence
SciTegic.value.DoubleValue
2.785

@<SCITEGIC>MOL_PROPERTY
Coulomb
SciTegic.value.DoubleValue
45.396

@<SCITEGIC>MOL_PROPERTY
VdW
SciTegic.value.DoubleValue
0.600

@<SCITEGIC>MOL_PROPERTY
VdW6
SciTegic.value.DoubleValue
-6.752

@<SCITEGIC>MOL_PROPERTY
VdW12
SciTegic.value.DoubleValue
7.352

@<SCITEGIC>MOL_PROPERTY
Bond
SciTegic.value.DoubleValue
0.213

@<SCITEGIC>MOL_PROPERTY
Angle
SciTegic.value.DoubleValue
1.043

@<SCITEGIC>MOL_PROPERTY
Pdih
SciTegic.value.DoubleValue
1.528

@<SCITEGIC>MOL_PROPERTY
Idih
SciTegic.value.DoubleValue
0.000

@<SCITEGIC>MOL_PROPERTY
Tether
SciTegic.value.DoubleValue
0.000

@<TRIPOS>MOLECULE
guest-2_vm2.mol2 : vm2 ligand conformer 36
          23          22           1
SMALL
USER_CHARGES
 
@<TRIPOS>ATOM
       1    N1      19.215291   18.152495   25.591474 N.4        1 MOL1        -0.5940
       2    H1      19.120548   17.194814   25.238579 H          1 MOL1         0.3649
       3    H2      18.400280   18.332810   26.187461 H          1 MOL1         0.3649
       4    H3      20.039238   18.169192   26.201076 H          1 MOL1         0.3649
       5    C1      19.324282   19.161725   24.466658 C.3        1 MOL1         0.0207
       6    H4      19.392974   20.157959   24.911798 H          1 MOL1         0.0950
       7    H5      18.404203   19.110099   23.878677 H          1 MOL1         0.0950
       8    C2      20.539286   18.918223   23.552171 C.3        1 MOL1        -0.1415
       9    H6      21.454503   18.935026   24.158655 H          1 MOL1         0.0976
      10    H7      20.478074   17.913491   23.114908 H          1 MOL1         0.0976
      11    C3      20.664107   19.977874   22.429396 C.3        1 MOL1        -0.1375
      12    H8      21.558134   19.761661   21.829465 H          1 MOL1         0.0976
      13    H9      20.845724   20.960043   22.887295 H          1 MOL1         0.0976
      14    C4      19.427536   20.087795   21.496890 C.3        1 MOL1        -0.1375
      15    H10     18.570289   20.465012   22.070596 H          1 MOL1         0.0976
      16    H11     19.630701   20.851998   20.734074 H          1 MOL1         0.0976
      17    C5      19.016692   18.771804   20.788656 C.3        1 MOL1        -0.1350
      18    H12     18.129281   18.968874   20.171116 H          1 MOL1         0.0976
      19    H13     18.706742   18.022543   21.529370 H          1 MOL1         0.0976
      20    C6      20.128807   18.187083   19.888755 C.3        1 MOL1        -0.2365
      21    H14     20.464041   18.923723   19.147189 H          1 MOL1         0.0987
      22    H15     19.761078   17.307036   19.345493 H          1 MOL1         0.0987
      23    H16     20.998977   17.872003   20.477898 H          1 MOL1         0.0987
@<TRIPOS>BOND
    1     1     2    1
    2     1     3    1
    3     1     4    1
    4     1     5    1
    5     5     6    1
    6     5     7    1
    7     5     8    1
    8     8     9    1
    9     8    10    1
   10     8    11    1
   11    11    12    1
   12    11    13    1
   13    11    14    1
   14    14    15    1
   15    14    16    1
   16    14    17    1
   17    17    18    1
   18    17    19    1
   19    17    20    1
   20    20    21    1
   21    20    22    1
   22    20    23    1
@<TRIPOS>SUBSTRUCTURE
       1 MOL1            1 RESIDUE      1      MOL     
@<SCITEGIC>MOL_PROPERTY
VM2 Rank
SciTegic.value.IntegerValue
36

@<SCITEGIC>MOL_PROPERTY
Conf_Id
SciTegic.value.IntegerValue
314

@<SCITEGIC>MOL_PROPERTY
Probability
SciTegic.value.DoubleValue
0.70

@<SCITEGIC>MOL_PROPERTY
Sum Probability
SciTegic.value.DoubleValue
96.79

@<SCITEGIC>MOL_PROPERTY
Delta G
SciTegic.value.DoubleValue
1.740

@<SCITEGIC>MOL_PROPERTY
G
SciTegic.value.DoubleValue
39.656

@<SCITEGIC>MOL_PROPERTY
E
SciTegic.value.DoubleValue
11.473

@<SCITEGIC>MOL_PROPERTY
-TS
SciTegic.value.DoubleValue
28.184

@<SCITEGIC>MOL_PROPERTY
U+W
SciTegic.value.DoubleValue
-7.306

@<SCITEGIC>MOL_PROPERTY
U
SciTegic.value.DoubleValue
48.641

@<SCITEGIC>MOL_PROPERTY
W
SciTegic.value.DoubleValue
-55.947

@<SCITEGIC>MOL_PROPERTY
W(PB)
SciTegic.value.DoubleValue
-58.031

@<SCITEGIC>MOL_PROPERTY
W(SA)
SciTegic.value.DoubleValue
2.084

@<SCITEGIC>MOL_PROPERTY
Valence
SciTegic.value.DoubleValue
2.922

@<SCITEGIC>MOL_PROPERTY
Coulomb
SciTegic.value.DoubleValue
45.269

@<SCITEGIC>MOL_PROPERTY
VdW
SciTegic.value.DoubleValue
0.450

@<SCITEGIC>MOL_PROPERTY
VdW6
SciTegic.value.DoubleValue
-7.045

@<SCITEGIC>MOL_PROPERTY
VdW12
SciTegic.value.DoubleValue
7.494

@<SCITEGIC>MOL_PROPERTY
Bond
SciTegic.value.DoubleValue
0.220

@<SCITEGIC>MOL_PROPERTY
Angle
SciTegic.value.DoubleValue
1.205

@<SCITEGIC>MOL_PROPERTY
Pdih
SciTegic.value.DoubleValue
1.497

@<SCITEGIC>MOL_PROPERTY
Idih
SciTegic.value.DoubleValue
0.000

@<SCITEGIC>MOL_PROPERTY
Tether
SciTegic.value.DoubleValue
0.000

@<TRIPOS>MOLECULE
guest-2_vm2.mol2 : vm2 ligand conformer 37
          23          22           1
SMALL
USER_CHARGES
 
@<TRIPOS>ATOM
       1    N1      20.004785   17.866973   25.235576 N.4        1 MOL1        -0.5940
       2    H1      19.920899   17.628913   26.229678 H          1 MOL1         0.3649
       3    H2      20.916032   17.519004   24.920858 H          1 MOL1         0.3649
       4    H3      19.286980   17.331594   24.737978 H          1 MOL1         0.3649
       5    C1      19.858648   19.357731   25.000163 C.3        1 MOL1         0.0207
       6    H4      20.628312   19.863801   25.589287 H          1 MOL1         0.0950
       7    H5      18.881022   19.667017   25.379616 H          1 MOL1         0.0950
       8    C2      19.994535   19.768260   23.521242 C.3        1 MOL1        -0.1415
       9    H6      19.970444   20.864356   23.460530 H          1 MOL1         0.0976
      10    H7      20.978161   19.453539   23.150137 H          1 MOL1         0.0976
      11    C3      18.868761   19.180441   22.634333 C.3        1 MOL1        -0.1375
      12    H8      17.896312   19.426987   23.082648 H          1 MOL1         0.0976
      13    H9      18.928360   18.084657   22.624208 H          1 MOL1         0.0976
      14    C4      18.885567   19.716668   21.179510 C.3        1 MOL1        -0.1375
      15    H10     18.036649   19.282210   20.633812 H          1 MOL1         0.0976
      16    H11     18.708286   20.800872   21.196059 H          1 MOL1         0.0976
      17    C5      20.187497   19.435764   20.386426 C.3        1 MOL1        -0.1350
      18    H12     21.034126   19.961669   20.847676 H          1 MOL1         0.0976
      19    H13     20.082069   19.862658   19.379267 H          1 MOL1         0.0976
      20    C6      20.516207   17.931164   20.256751 C.3        1 MOL1        -0.2365
      21    H14     20.747686   17.484608   21.231685 H          1 MOL1         0.0987
      22    H15     21.390533   17.783010   19.609869 H          1 MOL1         0.0987
      23    H16     19.675227   17.380086   19.816288 H          1 MOL1         0.0987
@<TRIPOS>BOND
    1     1     2    1
    2     1     3    1
    3     1     4    1
    4     1     5    1
    5     5     6    1
    6     5     7    1
    7     5     8    1
    8     8     9    1
    9     8    10    1
   10     8    11    1
   11    11    12    1
   12    11    13    1
   13    11    14    1
   14    14    15    1
   15    14    16    1
   16    14    17    1
   17    17    18    1
   18    17    19    1
   19    17    20    1
   20    20    21    1
   21    20    22    1
   22    20    23    1
@<TRIPOS>SUBSTRUCTURE
       1 MOL1            1 RESIDUE      1      MOL     
@<SCITEGIC>MOL_PROPERTY
VM2 Rank
SciTegic.value.IntegerValue
37

@<SCITEGIC>MOL_PROPERTY
Conf_Id
SciTegic.value.IntegerValue
573

@<SCITEGIC>MOL_PROPERTY
Probability
SciTegic.value.DoubleValue
0.70

@<SCITEGIC>MOL_PROPERTY
Sum Probability
SciTegic.value.DoubleValue
97.49

@<SCITEGIC>MOL_PROPERTY
Delta G
SciTegic.value.DoubleValue
1.740

@<SCITEGIC>MOL_PROPERTY
G
SciTegic.value.DoubleValue
39.656

@<SCITEGIC>MOL_PROPERTY
E
SciTegic.value.DoubleValue
11.602

@<SCITEGIC>MOL_PROPERTY
-TS
SciTegic.value.DoubleValue
28.055

@<SCITEGIC>MOL_PROPERTY
U+W
SciTegic.value.DoubleValue
-7.178

@<SCITEGIC>MOL_PROPERTY
U
SciTegic.value.DoubleValue
48.781

@<SCITEGIC>MOL_PROPERTY
W
SciTegic.value.DoubleValue
-55.958

@<SCITEGIC>MOL_PROPERTY
W(PB)
SciTegic.value.DoubleValue
-58.029

@<SCITEGIC>MOL_PROPERTY
W(SA)
SciTegic.value.DoubleValue
2.071

@<SCITEGIC>MOL_PROPERTY
Valence
SciTegic.value.DoubleValue
2.785

@<SCITEGIC>MOL_PROPERTY
Coulomb
SciTegic.value.DoubleValue
45.396

@<SCITEGIC>MOL_PROPERTY
VdW
SciTegic.value.DoubleValue
0.600

@<SCITEGIC>MOL_PROPERTY
VdW6
SciTegic.value.DoubleValue
-6.752

@<SCITEGIC>MOL_PROPERTY
VdW12
SciTegic.value.DoubleValue
7.352

@<SCITEGIC>MOL_PROPERTY
Bond
SciTegic.value.DoubleValue
0.213

@<SCITEGIC>MOL_PROPERTY
Angle
SciTegic.value.DoubleValue
1.043

@<SCITEGIC>MOL_PROPERTY
Pdih
SciTegic.value.DoubleValue
1.528

@<SCITEGIC>MOL_PROPERTY
Idih
SciTegic.value.DoubleValue
0.000

@<SCITEGIC>MOL_PROPERTY
Tether
SciTegic.value.DoubleValue
0.000

@<TRIPOS>MOLECULE
guest-2_vm2.mol2 : vm2 ligand conformer 38
          23          22           1
SMALL
USER_CHARGES
 
@<TRIPOS>ATOM
       1    N1      20.535693   18.701931   25.651569 N.4        1 MOL1        -0.5940
       2    H1      21.307733   18.104968   25.338115 H          1 MOL1         0.3649
       3    H2      19.898413   18.110529   26.194616 H          1 MOL1         0.3649
       4    H3      20.933768   19.387037   26.302817 H          1 MOL1         0.3649
       5    C1      19.831649   19.372866   24.489761 C.3        1 MOL1         0.0207
       6    H4      20.559463   20.006998   23.976831 H          1 MOL1         0.0950
       7    H5      19.043451   20.012505   24.895904 H          1 MOL1         0.0950
       8    C2      19.222281   18.370213   23.492177 C.3        1 MOL1        -0.1415
       9    H6      20.010620   17.718959   23.093650 H          1 MOL1         0.0976
      10    H7      18.521029   17.714431   24.025023 H          1 MOL1         0.0976
      11    C3      18.471397   19.065440   22.329467 C.3        1 MOL1        -0.1375
      12    H8      17.612895   19.614802   22.739942 H          1 MOL1         0.0976
      13    H9      18.043637   18.299186   21.669297 H          1 MOL1         0.0976
      14    C4      19.333707   20.048736   21.492620 C.3        1 MOL1        -0.1375
      15    H10     18.709143   20.468456   20.692043 H          1 MOL1         0.0976
      16    H11     19.623653   20.903364   22.118597 H          1 MOL1         0.0976
      17    C5      20.608917   19.434339   20.861294 C.3        1 MOL1        -0.1350
      18    H12     21.299512   19.101402   21.647647 H          1 MOL1         0.0976
      19    H13     21.140087   20.221705   20.308477 H          1 MOL1         0.0976
      20    C6      20.312356   18.263475   19.897112 C.3        1 MOL1        -0.2365
      21    H14     19.613062   18.569653   19.108326 H          1 MOL1         0.0987
      22    H15     19.879001   17.406023   20.426770 H          1 MOL1         0.0987
      23    H16     21.235799   17.920662   19.412782 H          1 MOL1         0.0987
@<TRIPOS>BOND
    1     1     2    1
    2     1     3    1
    3     1     4    1
    4     1     5    1
    5     5     6    1
    6     5     7    1
    7     5     8    1
    8     8     9    1
    9     8    10    1
   10     8    11    1
   11    11    12    1
   12    11    13    1
   13    11    14    1
   14    14    15    1
   15    14    16    1
   16    14    17    1
   17    17    18    1
   18    17    19    1
   19    17    20    1
   20    20    21    1
   21    20    22    1
   22    20    23    1
@<TRIPOS>SUBSTRUCTURE
       1 MOL1            1 RESIDUE      1      MOL     
@<SCITEGIC>MOL_PROPERTY
VM2 Rank
SciTegic.value.IntegerValue
38

@<SCITEGIC>MOL_PROPERTY
Conf_Id
SciTegic.value.IntegerValue
108

@<SCITEGIC>MOL_PROPERTY
Probability
SciTegic.value.DoubleValue
0.64

@<SCITEGIC>MOL_PROPERTY
Sum Probability
SciTegic.value.DoubleValue
98.13

@<SCITEGIC>MOL_PROPERTY
Delta G
SciTegic.value.DoubleValue
1.794

@<SCITEGIC>MOL_PROPERTY
G
SciTegic.value.DoubleValue
39.710

@<SCITEGIC>MOL_PROPERTY
E
SciTegic.value.DoubleValue
11.527

@<SCITEGIC>MOL_PROPERTY
-TS
SciTegic.value.DoubleValue
28.184

@<SCITEGIC>MOL_PROPERTY
U+W
SciTegic.value.DoubleValue
-7.252

@<SCITEGIC>MOL_PROPERTY
U
SciTegic.value.DoubleValue
48.641

@<SCITEGIC>MOL_PROPERTY
W
SciTegic.value.DoubleValue
-55.893

@<SCITEGIC>MOL_PROPERTY
W(PB)
SciTegic.value.DoubleValue
-57.963

@<SCITEGIC>MOL_PROPERTY
W(SA)
SciTegic.value.DoubleValue
2.070

@<SCITEGIC>MOL_PROPERTY
Valence
SciTegic.value.DoubleValue
2.922

@<SCITEGIC>MOL_PROPERTY
Coulomb
SciTegic.value.DoubleValue
45.269

@<SCITEGIC>MOL_PROPERTY
VdW
SciTegic.value.DoubleValue
0.450

@<SCITEGIC>MOL_PROPERTY
VdW6
SciTegic.value.DoubleValue
-7.045

@<SCITEGIC>MOL_PROPERTY
VdW12
SciTegic.value.DoubleValue
7.495

@<SCITEGIC>MOL_PROPERTY
Bond
SciTegic.value.DoubleValue
0.220

@<SCITEGIC>MOL_PROPERTY
Angle
SciTegic.value.DoubleValue
1.205

@<SCITEGIC>MOL_PROPERTY
Pdih
SciTegic.value.DoubleValue
1.497

@<SCITEGIC>MOL_PROPERTY
Idih
SciTegic.value.DoubleValue
0.000

@<SCITEGIC>MOL_PROPERTY
Tether
SciTegic.value.DoubleValue
0.000

@<TRIPOS>MOLECULE
guest-2_vm2.mol2 : vm2 ligand conformer 39
          23          22           1
SMALL
USER_CHARGES
 
@<TRIPOS>ATOM
       1    N1      19.091763   18.920044   25.429481 N.4        1 MOL1        -0.5940
       2    H1      19.748784   18.422910   26.039118 H          1 MOL1         0.3649
       3    H2      18.516372   18.212235   24.963265 H          1 MOL1         0.3649
       4    H3      18.469255   19.461529   26.038592 H          1 MOL1         0.3649
       5    C1      19.810732   19.803747   24.429317 C.3        1 MOL1         0.0207
       6    H4      20.378912   20.549528   24.991861 H          1 MOL1         0.0950
       7    H5      19.056981   20.327608   23.835772 H          1 MOL1         0.0950
       8    C2      20.763657   19.031294   23.495060 C.3        1 MOL1        -0.1415
       9    H6      21.297880   19.750445   22.861090 H          1 MOL1         0.0976
      10    H7      21.533990   18.533688   24.098870 H          1 MOL1         0.0976
      11    C3      20.053948   17.978359   22.604081 C.3        1 MOL1        -0.1375
      12    H8      19.655815   17.176134   23.239632 H          1 MOL1         0.0976
      13    H9      20.800710   17.494873   21.960345 H          1 MOL1         0.0976
      14    C4      18.900941   18.538079   21.727784 C.3        1 MOL1        -0.1375
      15    H10     18.480930   17.715163   21.133188 H          1 MOL1         0.0976
      16    H11     18.083128   18.881400   22.375318 H          1 MOL1         0.0976
      17    C5      19.300423   19.691331   20.772491 C.3        1 MOL1        -0.1350
      18    H12     19.630455   20.565548   21.349451 H          1 MOL1         0.0976
      19    H13     18.406433   20.014813   20.221294 H          1 MOL1         0.0976
      20    C6      20.394536   19.294146   19.755786 C.3        1 MOL1        -0.2365
      21    H14     20.579071   20.113843   19.049471 H          1 MOL1         0.0987
      22    H15     20.092533   18.412531   19.175720 H          1 MOL1         0.0987
      23    H16     21.344831   19.068069   20.255142 H          1 MOL1         0.0987
@<TRIPOS>BOND
    1     1     2    1
    2     1     3    1
    3     1     4    1
    4     1     5    1
    5     5     6    1
    6     5     7    1
    7     5     8    1
    8     8     9    1
    9     8    10    1
   10     8    11    1
   11    11    12    1
   12    11    13    1
   13    11    14    1
   14    14    15    1
   15    14    16    1
   16    14    17    1
   17    17    18    1
   18    17    19    1
   19    17    20    1
   20    20    21    1
   21    20    22    1
   22    20    23    1
@<TRIPOS>SUBSTRUCTURE
       1 MOL1            1 RESIDUE      1      MOL     
@<SCITEGIC>MOL_PROPERTY
VM2 Rank
SciTegic.value.IntegerValue
39

@<SCITEGIC>MOL_PROPERTY
Conf_Id
SciTegic.value.IntegerValue
542

@<SCITEGIC>MOL_PROPERTY
Probability
SciTegic.value.DoubleValue
0.35

@<SCITEGIC>MOL_PROPERTY
Sum Probability
SciTegic.value.DoubleValue
98.48

@<SCITEGIC>MOL_PROPERTY
Delta G
SciTegic.value.DoubleValue
2.158

@<SCITEGIC>MOL_PROPERTY
G
SciTegic.value.DoubleValue
40.074

@<SCITEGIC>MOL_PROPERTY
E
SciTegic.value.DoubleValue
11.698

@<SCITEGIC>MOL_PROPERTY
-TS
SciTegic.value.DoubleValue
28.376

@<SCITEGIC>MOL_PROPERTY
U+W
SciTegic.value.DoubleValue
-7.081

@<SCITEGIC>MOL_PROPERTY
U
SciTegic.value.DoubleValue
48.991

@<SCITEGIC>MOL_PROPERTY
W
SciTegic.value.DoubleValue
-56.072

@<SCITEGIC>MOL_PROPERTY
W(PB)
SciTegic.value.DoubleValue
-58.113

@<SCITEGIC>MOL_PROPERTY
W(SA)
SciTegic.value.DoubleValue
2.041

@<SCITEGIC>MOL_PROPERTY
Valence
SciTegic.value.DoubleValue
3.025

@<SCITEGIC>MOL_PROPERTY
Coulomb
SciTegic.value.DoubleValue
45.510

@<SCITEGIC>MOL_PROPERTY
VdW
SciTegic.value.DoubleValue
0.456

@<SCITEGIC>MOL_PROPERTY
VdW6
SciTegic.value.DoubleValue
-7.727

@<SCITEGIC>MOL_PROPERTY
VdW12
SciTegic.value.DoubleValue
8.183

@<SCITEGIC>MOL_PROPERTY
Bond
SciTegic.value.DoubleValue
0.246

@<SCITEGIC>MOL_PROPERTY
Angle
SciTegic.value.DoubleValue
1.276

@<SCITEGIC>MOL_PROPERTY
Pdih
SciTegic.value.DoubleValue
1.503

@<SCITEGIC>MOL_PROPERTY
Idih
SciTegic.value.DoubleValue
0.000

@<SCITEGIC>MOL_PROPERTY
Tether
SciTegic.value.DoubleValue
0.000

@<TRIPOS>MOLECULE
guest-2_vm2.mol2 : vm2 ligand conformer 40
          23          22           1
SMALL
USER_CHARGES
 
@<TRIPOS>ATOM
       1    N1      20.091447   19.335852   25.475034 N.4        1 MOL1        -0.5940
       2    H1      20.097973   20.138980   26.112750 H          1 MOL1         0.3649
       3    H2      21.032614   19.258693   25.077948 H          1 MOL1         0.3649
       4    H3      19.934748   18.500371   26.047652 H          1 MOL1         0.3649
       5    C1      19.038728   19.482704   24.394111 C.3        1 MOL1         0.0207
       6    H4      19.243150   20.405026   23.844200 H          1 MOL1         0.0950
       7    H5      18.068273   19.588620   24.886527 H          1 MOL1         0.0950
       8    C2      18.988941   18.293219   23.414193 C.3        1 MOL1        -0.1415
       9    H6      18.753487   17.377354   23.972192 H          1 MOL1         0.0976
      10    H7      18.153990   18.442951   22.717828 H          1 MOL1         0.0976
      11    C3      20.301641   18.081313   22.615371 C.3        1 MOL1        -0.1375
      12    H8      20.169487   17.232320   21.931592 H          1 MOL1         0.0976
      13    H9      21.099720   17.776543   23.305433 H          1 MOL1         0.0976
      14    C4      20.782967   19.320661   21.813531 C.3        1 MOL1        -0.1375
      15    H10     21.063993   20.120890   22.511128 H          1 MOL1         0.0976
      16    H11     21.706428   19.056421   21.280110 H          1 MOL1         0.0976
      17    C5      19.760248   19.882553   20.793487 C.3        1 MOL1        -0.1350
      18    H12     20.201696   20.761418   20.303187 H          1 MOL1         0.0976
      19    H13     18.864999   20.247195   21.314658 H          1 MOL1         0.0976
      20    C6      19.352028   18.860697   19.708272 C.3        1 MOL1        -0.2365
      21    H14     20.233072   18.471182   19.181995 H          1 MOL1         0.0987
      22    H15     18.696934   19.331299   18.963810 H          1 MOL1         0.0987
      23    H16     18.806214   18.012332   20.139422 H          1 MOL1         0.0987
@<TRIPOS>BOND
    1     1     2    1
    2     1     3    1
    3     1     4    1
    4     1     5    1
    5     5     6    1
    6     5     7    1
    7     5     8    1
    8     8     9    1
    9     8    10    1
   10     8    11    1
   11    11    12    1
   12    11    13    1
   13    11    14    1
   14    14    15    1
   15    14    16    1
   16    14    17    1
   17    17    18    1
   18    17    19    1
   19    17    20    1
   20    20    21    1
   21    20    22    1
   22    20    23    1
@<TRIPOS>SUBSTRUCTURE
       1 MOL1            1 RESIDUE      1      MOL     
@<SCITEGIC>MOL_PROPERTY
VM2 Rank
SciTegic.value.IntegerValue
40

@<SCITEGIC>MOL_PROPERTY
Conf_Id
SciTegic.value.IntegerValue
368

@<SCITEGIC>MOL_PROPERTY
Probability
SciTegic.value.DoubleValue
0.33

@<SCITEGIC>MOL_PROPERTY
Sum Probability
SciTegic.value.DoubleValue
98.81

@<SCITEGIC>MOL_PROPERTY
Delta G
SciTegic.value.DoubleValue
2.187

@<SCITEGIC>MOL_PROPERTY
G
SciTegic.value.DoubleValue
40.103

@<SCITEGIC>MOL_PROPERTY
E
SciTegic.value.DoubleValue
11.727

@<SCITEGIC>MOL_PROPERTY
-TS
SciTegic.value.DoubleValue
28.376

@<SCITEGIC>MOL_PROPERTY
U+W
SciTegic.value.DoubleValue
-7.052

@<SCITEGIC>MOL_PROPERTY
U
SciTegic.value.DoubleValue
48.991

@<SCITEGIC>MOL_PROPERTY
W
SciTegic.value.DoubleValue
-56.043

@<SCITEGIC>MOL_PROPERTY
W(PB)
SciTegic.value.DoubleValue
-58.100

@<SCITEGIC>MOL_PROPERTY
W(SA)
SciTegic.value.DoubleValue
2.057

@<SCITEGIC>MOL_PROPERTY
Valence
SciTegic.value.DoubleValue
3.025

@<SCITEGIC>MOL_PROPERTY
Coulomb
SciTegic.value.DoubleValue
45.510

@<SCITEGIC>MOL_PROPERTY
VdW
SciTegic.value.DoubleValue
0.456

@<SCITEGIC>MOL_PROPERTY
VdW6
SciTegic.value.DoubleValue
-7.727

@<SCITEGIC>MOL_PROPERTY
VdW12
SciTegic.value.DoubleValue
8.183

@<SCITEGIC>MOL_PROPERTY
Bond
SciTegic.value.DoubleValue
0.246

@<SCITEGIC>MOL_PROPERTY
Angle
SciTegic.value.DoubleValue
1.276

@<SCITEGIC>MOL_PROPERTY
Pdih
SciTegic.value.DoubleValue
1.503

@<SCITEGIC>MOL_PROPERTY
Idih
SciTegic.value.DoubleValue
0.000

@<SCITEGIC>MOL_PROPERTY
Tether
SciTegic.value.DoubleValue
0.000

@<TRIPOS>MOLECULE
guest-2_vm2.mol2 : vm2 ligand conformer 41
          23          22           1
SMALL
USER_CHARGES
 
@<TRIPOS>ATOM
       1    N1      20.633214   18.014596   24.831745 N.4        1 MOL1        -0.5940
       2    H1      20.955296   17.871922   23.870725 H          1 MOL1         0.3649
       3    H2      20.043385   17.212490   25.075668 H          1 MOL1         0.3649
       4    H3      21.459913   17.971205   25.437375 H          1 MOL1         0.3649
       5    C1      19.889570   19.326877   24.989582 C.3        1 MOL1         0.0207
       6    H4      20.580272   20.146952   24.775752 H          1 MOL1         0.0950
       7    H5      19.592340   19.399736   26.039285 H          1 MOL1         0.0950
       8    C2      18.633422   19.454958   24.102719 C.3        1 MOL1        -0.1415
       9    H6      18.071755   18.511366   24.107394 H          1 MOL1         0.0976
      10    H7      17.972869   20.200572   24.564895 H          1 MOL1         0.0976
      11    C3      18.915805   19.908263   22.647324 C.3        1 MOL1        -0.1375
      12    H8      19.421567   20.883728   22.659873 H          1 MOL1         0.0976
      13    H9      17.950937   20.070569   22.147184 H          1 MOL1         0.0976
      14    C4      19.749325   18.905650   21.814351 C.3        1 MOL1        -0.1375
      15    H10     20.768821   18.846547   22.214910 H          1 MOL1         0.0976
      16    H11     19.306866   17.902778   21.891048 H          1 MOL1         0.0976
      17    C5      19.825700   19.319921   20.327995 C.3        1 MOL1        -0.1350
      18    H12     20.261156   20.325666   20.244985 H          1 MOL1         0.0976
      19    H13     18.812774   19.377340   19.905324 H          1 MOL1         0.0976
      20    C6      20.668963   18.326735   19.500284 C.3        1 MOL1        -0.2365
      21    H14     21.699106   18.273990   19.876062 H          1 MOL1         0.0987
      22    H15     20.710108   18.636548   18.447968 H          1 MOL1         0.0987
      23    H16     20.239161   17.317220   19.537422 H          1 MOL1         0.0987
@<TRIPOS>BOND
    1     1     2    1
    2     1     3    1
    3     1     4    1
    4     1     5    1
    5     5     6    1
    6     5     7    1
    7     5     8    1
    8     8     9    1
    9     8    10    1
   10     8    11    1
   11    11    12    1
   12    11    13    1
   13    11    14    1
   14    14    15    1
   15    14    16    1
   16    14    17    1
   17    17    18    1
   18    17    19    1
   19    17    20    1
   20    20    21    1
   21    20    22    1
   22    20    23    1
@<TRIPOS>SUBSTRUCTURE
       1 MOL1            1 RESIDUE      1      MOL     
@<SCITEGIC>MOL_PROPERTY
VM2 Rank
SciTegic.value.IntegerValue
41

@<SCITEGIC>MOL_PROPERTY
Conf_Id
SciTegic.value.IntegerValue
670

@<SCITEGIC>MOL_PROPERTY
Probability
SciTegic.value.DoubleValue
0.12

@<SCITEGIC>MOL_PROPERTY
Sum Probability
SciTegic.value.DoubleValue
98.92

@<SCITEGIC>MOL_PROPERTY
Delta G
SciTegic.value.DoubleValue
2.813

@<SCITEGIC>MOL_PROPERTY
G
SciTegic.value.DoubleValue
40.729

@<SCITEGIC>MOL_PROPERTY
E
SciTegic.value.DoubleValue
13.064

@<SCITEGIC>MOL_PROPERTY
-TS
SciTegic.value.DoubleValue
27.665

@<SCITEGIC>MOL_PROPERTY
U+W
SciTegic.value.DoubleValue
-5.715

@<SCITEGIC>MOL_PROPERTY
U
SciTegic.value.DoubleValue
50.170

@<SCITEGIC>MOL_PROPERTY
W
SciTegic.value.DoubleValue
-55.885

@<SCITEGIC>MOL_PROPERTY
W(PB)
SciTegic.value.DoubleValue
-57.989

@<SCITEGIC>MOL_PROPERTY
W(SA)
SciTegic.value.DoubleValue
2.104

@<SCITEGIC>MOL_PROPERTY
Valence
SciTegic.value.DoubleValue
3.335

@<SCITEGIC>MOL_PROPERTY
Coulomb
SciTegic.value.DoubleValue
46.425

@<SCITEGIC>MOL_PROPERTY
VdW
SciTegic.value.DoubleValue
0.410

@<SCITEGIC>MOL_PROPERTY
VdW6
SciTegic.value.DoubleValue
-6.121

@<SCITEGIC>MOL_PROPERTY
VdW12
SciTegic.value.DoubleValue
6.531

@<SCITEGIC>MOL_PROPERTY
Bond
SciTegic.value.DoubleValue
0.172

@<SCITEGIC>MOL_PROPERTY
Angle
SciTegic.value.DoubleValue
0.958

@<SCITEGIC>MOL_PROPERTY
Pdih
SciTegic.value.DoubleValue
2.205

@<SCITEGIC>MOL_PROPERTY
Idih
SciTegic.value.DoubleValue
0.000

@<SCITEGIC>MOL_PROPERTY
Tether
SciTegic.value.DoubleValue
0.000

@<TRIPOS>MOLECULE
guest-2_vm2.mol2 : vm2 ligand conformer 42
          23          22           1
SMALL
USER_CHARGES
 
@<TRIPOS>ATOM
       1    N1      19.697305   17.625023   24.789057 N.4        1 MOL1        -0.5940
       2    H1      20.660285   17.469321   25.104012 H          1 MOL1         0.3649
       3    H2      19.647167   17.327288   23.811050 H          1 MOL1         0.3649
       4    H3      19.100901   16.989324   25.329695 H          1 MOL1         0.3649
       5    C1      19.277281   19.072036   24.961522 C.3        1 MOL1         0.0207
       6    H4      19.352545   19.300068   26.028230 H          1 MOL1         0.0950
       7    H5      18.228454   19.167996   24.668142 H          1 MOL1         0.0950
       8    C2      20.136902   20.080709   24.171285 C.3        1 MOL1        -0.1415
       9    H6      20.036440   21.059417   24.659048 H          1 MOL1         0.0976
      10    H7      21.198935   19.812876   24.250091 H          1 MOL1         0.0976
      11    C3      19.730812   20.247492   22.684452 C.3        1 MOL1        -0.1375
      12    H8      20.332003   21.061262   22.255730 H          1 MOL1         0.0976
      13    H9      18.684193   20.577145   22.626113 H          1 MOL1         0.0976
      14    C4      19.920314   18.976887   21.822201 C.3        1 MOL1        -0.1375
      15    H10     20.934949   18.580166   21.965487 H          1 MOL1         0.0976
      16    H11     19.215397   18.200492   22.144104 H          1 MOL1         0.0976
      17    C5      19.688944   19.262958   20.321755 C.3        1 MOL1        -0.1350
      18    H12     20.392203   20.034179   19.977355 H          1 MOL1         0.0976
      19    H13     18.677706   19.666929   20.172620 H          1 MOL1         0.0976
      20    C6      19.864443   17.991893   19.463729 C.3        1 MOL1        -0.2365
      21    H14     19.698045   18.215220   18.401899 H          1 MOL1         0.0987
      22    H15     19.149421   17.213301   19.759910 H          1 MOL1         0.0987
      23    H16     20.877941   17.582726   19.566857 H          1 MOL1         0.0987
@<TRIPOS>BOND
    1     1     2    1
    2     1     3    1
    3     1     4    1
    4     1     5    1
    5     5     6    1
    6     5     7    1
    7     5     8    1
    8     8     9    1
    9     8    10    1
   10     8    11    1
   11    11    12    1
   12    11    13    1
   13    11    14    1
   14    14    15    1
   15    14    16    1
   16    14    17    1
   17    17    18    1
   18    17    19    1
   19    17    20    1
   20    20    21    1
   21    20    22    1
   22    20    23    1
@<TRIPOS>SUBSTRUCTURE
       1 MOL1            1 RESIDUE      1      MOL     
@<SCITEGIC>MOL_PROPERTY
VM2 Rank
SciTegic.value.IntegerValue
42

@<SCITEGIC>MOL_PROPERTY
Conf_Id
SciTegic.value.IntegerValue
160

@<SCITEGIC>MOL_PROPERTY
Probability
SciTegic.value.DoubleValue
0.11

@<SCITEGIC>MOL_PROPERTY
Sum Probability
SciTegic.value.DoubleValue
99.04

@<SCITEGIC>MOL_PROPERTY
Delta G
SciTegic.value.DoubleValue
2.817

@<SCITEGIC>MOL_PROPERTY
G
SciTegic.value.DoubleValue
40.733

@<SCITEGIC>MOL_PROPERTY
E
SciTegic.value.DoubleValue
13.067

@<SCITEGIC>MOL_PROPERTY
-TS
SciTegic.value.DoubleValue
27.666

@<SCITEGIC>MOL_PROPERTY
U+W
SciTegic.value.DoubleValue
-5.712

@<SCITEGIC>MOL_PROPERTY
U
SciTegic.value.DoubleValue
50.170

@<SCITEGIC>MOL_PROPERTY
W
SciTegic.value.DoubleValue
-55.882

@<SCITEGIC>MOL_PROPERTY
W(PB)
SciTegic.value.DoubleValue
-57.977

@<SCITEGIC>MOL_PROPERTY
W(SA)
SciTegic.value.DoubleValue
2.095

@<SCITEGIC>MOL_PROPERTY
Valence
SciTegic.value.DoubleValue
3.335

@<SCITEGIC>MOL_PROPERTY
Coulomb
SciTegic.value.DoubleValue
46.425

@<SCITEGIC>MOL_PROPERTY
VdW
SciTegic.value.DoubleValue
0.410

@<SCITEGIC>MOL_PROPERTY
VdW6
SciTegic.value.DoubleValue
-6.121

@<SCITEGIC>MOL_PROPERTY
VdW12
SciTegic.value.DoubleValue
6.531

@<SCITEGIC>MOL_PROPERTY
Bond
SciTegic.value.DoubleValue
0.172

@<SCITEGIC>MOL_PROPERTY
Angle
SciTegic.value.DoubleValue
0.958

@<SCITEGIC>MOL_PROPERTY
Pdih
SciTegic.value.DoubleValue
2.206

@<SCITEGIC>MOL_PROPERTY
Idih
SciTegic.value.DoubleValue
0.000

@<SCITEGIC>MOL_PROPERTY
Tether
SciTegic.value.DoubleValue
0.000

@<TRIPOS>MOLECULE
guest-2_vm2.mol2 : vm2 ligand conformer 43
          23          22           1
SMALL
USER_CHARGES
 
@<TRIPOS>ATOM
       1    N1      20.693135   18.841628   25.643462 N.4        1 MOL1        -0.5940
       2    H1      20.624603   17.832025   25.807255 H          1 MOL1         0.3649
       3    H2      20.120195   19.302389   26.357783 H          1 MOL1         0.3649
       4    H3      21.666801   19.107752   25.825493 H          1 MOL1         0.3649
       5    C1      20.259056   19.217746   24.241346 C.3        1 MOL1         0.0207
       6    H4      20.929027   18.714798   23.539840 H          1 MOL1         0.0950
       7    H5      20.382833   20.298060   24.127425 H          1 MOL1         0.0950
       8    C2      18.802353   18.826875   23.935664 C.3        1 MOL1        -0.1415
       9    H6      18.694838   17.736345   24.006897 H          1 MOL1         0.0976
      10    H7      18.150994   19.253901   24.709834 H          1 MOL1         0.0976
      11    C3      18.301426   19.307728   22.550260 C.3        1 MOL1        -0.1375
      12    H8      18.333713   20.404671   22.495161 H          1 MOL1         0.0976
      13    H9      17.239090   19.037941   22.471611 H          1 MOL1         0.0976
      14    C4      19.046228   18.686400   21.339612 C.3        1 MOL1        -0.1375
      15    H10     19.344438   17.654148   21.569341 H          1 MOL1         0.0976
      16    H11     18.339976   18.617590   20.500535 H          1 MOL1         0.0976
      17    C5      20.270286   19.508665   20.868013 C.3        1 MOL1        -0.1350
      18    H12     21.011679   19.600411   21.670164 H          1 MOL1         0.0976
      19    H13     19.953202   20.530297   20.616008 H          1 MOL1         0.0976
      20    C6      20.943516   18.867959   19.635643 C.3        1 MOL1        -0.2365
      21    H14     21.805397   19.465013   19.310473 H          1 MOL1         0.0987
      22    H15     20.243327   18.801004   18.792743 H          1 MOL1         0.0987
      23    H16     21.301878   17.855627   19.863644 H          1 MOL1         0.0987
@<TRIPOS>BOND
    1     1     2    1
    2     1     3    1
    3     1     4    1
    4     1     5    1
    5     5     6    1
    6     5     7    1
    7     5     8    1
    8     8     9    1
    9     8    10    1
   10     8    11    1
   11    11    12    1
   12    11    13    1
   13    11    14    1
   14    14    15    1
   15    14    16    1
   16    14    17    1
   17    17    18    1
   18    17    19    1
   19    17    20    1
   20    20    21    1
   21    20    22    1
   22    20    23    1
@<TRIPOS>SUBSTRUCTURE
       1 MOL1            1 RESIDUE      1      MOL     
@<SCITEGIC>MOL_PROPERTY
VM2 Rank
SciTegic.value.IntegerValue
43

@<SCITEGIC>MOL_PROPERTY
Conf_Id
SciTegic.value.IntegerValue
361

@<SCITEGIC>MOL_PROPERTY
Probability
SciTegic.value.DoubleValue
0.11

@<SCITEGIC>MOL_PROPERTY
Sum Probability
SciTegic.value.DoubleValue
99.15

@<SCITEGIC>MOL_PROPERTY
Delta G
SciTegic.value.DoubleValue
2.836

@<SCITEGIC>MOL_PROPERTY
G
SciTegic.value.DoubleValue
40.752

@<SCITEGIC>MOL_PROPERTY
E
SciTegic.value.DoubleValue
13.107

@<SCITEGIC>MOL_PROPERTY
-TS
SciTegic.value.DoubleValue
27.645

@<SCITEGIC>MOL_PROPERTY
U+W
SciTegic.value.DoubleValue
-5.672

@<SCITEGIC>MOL_PROPERTY
U
SciTegic.value.DoubleValue
50.133

@<SCITEGIC>MOL_PROPERTY
W
SciTegic.value.DoubleValue
-55.805

@<SCITEGIC>MOL_PROPERTY
W(PB)
SciTegic.value.DoubleValue
-57.921

@<SCITEGIC>MOL_PROPERTY
W(SA)
SciTegic.value.DoubleValue
2.116

@<SCITEGIC>MOL_PROPERTY
Valence
SciTegic.value.DoubleValue
4.276

@<SCITEGIC>MOL_PROPERTY
Coulomb
SciTegic.value.DoubleValue
45.339

@<SCITEGIC>MOL_PROPERTY
VdW
SciTegic.value.DoubleValue
0.519

@<SCITEGIC>MOL_PROPERTY
VdW6
SciTegic.value.DoubleValue
-6.084

@<SCITEGIC>MOL_PROPERTY
VdW12
SciTegic.value.DoubleValue
6.602

@<SCITEGIC>MOL_PROPERTY
Bond
SciTegic.value.DoubleValue
0.193

@<SCITEGIC>MOL_PROPERTY
Angle
SciTegic.value.DoubleValue
1.128

@<SCITEGIC>MOL_PROPERTY
Pdih
SciTegic.value.DoubleValue
2.955

@<SCITEGIC>MOL_PROPERTY
Idih
SciTegic.value.DoubleValue
0.000

@<SCITEGIC>MOL_PROPERTY
Tether
SciTegic.value.DoubleValue
0.000

@<TRIPOS>MOLECULE
guest-2_vm2.mol2 : vm2 ligand conformer 44
          23          22           1
SMALL
USER_CHARGES
 
@<TRIPOS>ATOM
       1    N1      19.006384   18.139700   25.566488 N.4        1 MOL1        -0.5940
       2    H1      19.026683   18.847337   26.307875 H          1 MOL1         0.3649
       3    H2      19.756764   17.470899   25.767623 H          1 MOL1         0.3649
       4    H3      18.120535   17.631957   25.663700 H          1 MOL1         0.3649
       5    C1      19.153455   18.757683   24.190883 C.3        1 MOL1         0.0207
       6    H4      18.310372   19.435635   24.032869 H          1 MOL1         0.0950
       7    H5      19.093935   17.951164   23.456094 H          1 MOL1         0.0950
       8    C2      20.476230   19.523495   24.011986 C.3        1 MOL1        -0.1415
       9    H6      20.570766   20.261023   24.820118 H          1 MOL1         0.0976
      10    H7      21.318439   18.828209   24.126653 H          1 MOL1         0.0976
      11    C3      20.594850   20.261998   22.654770 C.3        1 MOL1        -0.1375
      12    H8      21.537606   20.826427   22.667497 H          1 MOL1         0.0976
      13    H9      19.799760   21.014703   22.561886 H          1 MOL1         0.0976
      14    C4      20.605960   19.335310   21.410757 C.3        1 MOL1        -0.1375
      15    H10     21.215627   19.813762   20.631674 H          1 MOL1         0.0976
      16    H11     21.109564   18.388527   21.649995 H          1 MOL1         0.0976
      17    C5      19.201211   19.064016   20.819218 C.3        1 MOL1        -0.1350
      18    H12     18.720179   20.017378   20.559427 H          1 MOL1         0.0976
      19    H13     18.553454   18.578229   21.558104 H          1 MOL1         0.0976
      20    C6      19.277911   18.174797   19.559897 C.3        1 MOL1        -0.2365
      21    H14     18.275464   17.996306   19.149669 H          1 MOL1         0.0987
      22    H15     19.725247   17.199548   19.792278 H          1 MOL1         0.0987
      23    H16     19.882356   18.650209   18.776407 H          1 MOL1         0.0987
@<TRIPOS>BOND
    1     1     2    1
    2     1     3    1
    3     1     4    1
    4     1     5    1
    5     5     6    1
    6     5     7    1
    7     5     8    1
    8     8     9    1
    9     8    10    1
   10     8    11    1
   11    11    12    1
   12    11    13    1
   13    11    14    1
   14    14    15    1
   15    14    16    1
   16    14    17    1
   17    17    18    1
   18    17    19    1
   19    17    20    1
   20    20    21    1
   21    20    22    1
   22    20    23    1
@<TRIPOS>SUBSTRUCTURE
       1 MOL1            1 RESIDUE      1      MOL     
@<SCITEGIC>MOL_PROPERTY
VM2 Rank
SciTegic.value.IntegerValue
44

@<SCITEGIC>MOL_PROPERTY
Conf_Id
SciTegic.value.IntegerValue
750

@<SCITEGIC>MOL_PROPERTY
Probability
SciTegic.value.DoubleValue
0.10

@<SCITEGIC>MOL_PROPERTY
Sum Probability
SciTegic.value.DoubleValue
99.25

@<SCITEGIC>MOL_PROPERTY
Delta G
SciTegic.value.DoubleValue
2.884

@<SCITEGIC>MOL_PROPERTY
G
SciTegic.value.DoubleValue
40.800

@<SCITEGIC>MOL_PROPERTY
E
SciTegic.value.DoubleValue
13.154

@<SCITEGIC>MOL_PROPERTY
-TS
SciTegic.value.DoubleValue
27.646

@<SCITEGIC>MOL_PROPERTY
U+W
SciTegic.value.DoubleValue
-5.625

@<SCITEGIC>MOL_PROPERTY
U
SciTegic.value.DoubleValue
50.133

@<SCITEGIC>MOL_PROPERTY
W
SciTegic.value.DoubleValue
-55.758

@<SCITEGIC>MOL_PROPERTY
W(PB)
SciTegic.value.DoubleValue
-57.886

@<SCITEGIC>MOL_PROPERTY
W(SA)
SciTegic.value.DoubleValue
2.128

@<SCITEGIC>MOL_PROPERTY
Valence
SciTegic.value.DoubleValue
4.276

@<SCITEGIC>MOL_PROPERTY
Coulomb
SciTegic.value.DoubleValue
45.339

@<SCITEGIC>MOL_PROPERTY
VdW
SciTegic.value.DoubleValue
0.519

@<SCITEGIC>MOL_PROPERTY
VdW6
SciTegic.value.DoubleValue
-6.084

@<SCITEGIC>MOL_PROPERTY
VdW12
SciTegic.value.DoubleValue
6.602

@<SCITEGIC>MOL_PROPERTY
Bond
SciTegic.value.DoubleValue
0.193

@<SCITEGIC>MOL_PROPERTY
Angle
SciTegic.value.DoubleValue
1.128

@<SCITEGIC>MOL_PROPERTY
Pdih
SciTegic.value.DoubleValue
2.955

@<SCITEGIC>MOL_PROPERTY
Idih
SciTegic.value.DoubleValue
0.000

@<SCITEGIC>MOL_PROPERTY
Tether
SciTegic.value.DoubleValue
0.000

@<TRIPOS>MOLECULE
guest-2_vm2.mol2 : vm2 ligand conformer 45
          23          22           1
SMALL
USER_CHARGES
 
@<TRIPOS>ATOM
       1    N1      20.062908   17.854696   24.996728 N.4        1 MOL1        -0.5940
       2    H1      20.161111   17.393962   24.088092 H          1 MOL1         0.3649
       3    H2      19.164450   17.558476   25.391371 H          1 MOL1         0.3649
       4    H3      20.795397   17.477496   25.607661 H          1 MOL1         0.3649
       5    C1      20.153446   19.363651   24.876935 C.3        1 MOL1         0.0207
       6    H4      21.148200   19.624238   24.505626 H          1 MOL1         0.0950
       7    H5      20.052166   19.769813   25.887031 H          1 MOL1         0.0950
       8    C2      19.074812   19.995191   23.972182 C.3        1 MOL1        -0.1415
       9    H6      18.097009   19.539558   24.177404 H          1 MOL1         0.0976
      10    H7      18.979498   21.052083   24.254580 H          1 MOL1         0.0976
      11    C3      19.391938   19.935593   22.455901 C.3        1 MOL1        -0.1375
      12    H8      20.348572   20.441594   22.268932 H          1 MOL1         0.0976
      13    H9      18.626962   20.517215   21.923220 H          1 MOL1         0.0976
      14    C4      19.431644   18.503183   21.867242 C.3        1 MOL1        -0.1375
      15    H10     20.310488   17.966670   22.245818 H          1 MOL1         0.0976
      16    H11     18.546150   17.947563   22.205542 H          1 MOL1         0.0976
      17    C5      19.464445   18.479813   20.319990 C.3        1 MOL1        -0.1350
      18    H12     18.573445   18.984754   19.921277 H          1 MOL1         0.0976
      19    H13     19.403361   17.436303   19.980576 H          1 MOL1         0.0976
      20    C6      20.736808   19.124874   19.725022 C.3        1 MOL1        -0.2365
      21    H14     21.643282   18.651859   20.124466 H          1 MOL1         0.0987
      22    H15     20.784003   20.198796   19.944445 H          1 MOL1         0.0987
      23    H16     20.751523   19.009988   18.633460 H          1 MOL1         0.0987
@<TRIPOS>BOND
    1     1     2    1
    2     1     3    1
    3     1     4    1
    4     1     5    1
    5     5     6    1
    6     5     7    1
    7     5     8    1
    8     8     9    1
    9     8    10    1
   10     8    11    1
   11    11    12    1
   12    11    13    1
   13    11    14    1
   14    14    15    1
   15    14    16    1
   16    14    17    1
   17    17    18    1
   18    17    19    1
   19    17    20    1
   20    20    21    1
   21    20    22    1
   22    20    23    1
@<TRIPOS>SUBSTRUCTURE
       1 MOL1            1 RESIDUE      1      MOL     
@<SCITEGIC>MOL_PROPERTY
VM2 Rank
SciTegic.value.IntegerValue
45

@<SCITEGIC>MOL_PROPERTY
Conf_Id
SciTegic.value.IntegerValue
140

@<SCITEGIC>MOL_PROPERTY
Probability
SciTegic.value.DoubleValue
0.05

@<SCITEGIC>MOL_PROPERTY
Sum Probability
SciTegic.value.DoubleValue
99.31

@<SCITEGIC>MOL_PROPERTY
Delta G
SciTegic.value.DoubleValue
3.293

@<SCITEGIC>MOL_PROPERTY
G
SciTegic.value.DoubleValue
41.209

@<SCITEGIC>MOL_PROPERTY
E
SciTegic.value.DoubleValue
13.408

@<SCITEGIC>MOL_PROPERTY
-TS
SciTegic.value.DoubleValue
27.801

@<SCITEGIC>MOL_PROPERTY
U+W
SciTegic.value.DoubleValue
-5.371

@<SCITEGIC>MOL_PROPERTY
U
SciTegic.value.DoubleValue
50.658

@<SCITEGIC>MOL_PROPERTY
W
SciTegic.value.DoubleValue
-56.029

@<SCITEGIC>MOL_PROPERTY
W(PB)
SciTegic.value.DoubleValue
-58.111

@<SCITEGIC>MOL_PROPERTY
W(SA)
SciTegic.value.DoubleValue
2.082

@<SCITEGIC>MOL_PROPERTY
Valence
SciTegic.value.DoubleValue
3.782

@<SCITEGIC>MOL_PROPERTY
Coulomb
SciTegic.value.DoubleValue
46.354

@<SCITEGIC>MOL_PROPERTY
VdW
SciTegic.value.DoubleValue
0.522

@<SCITEGIC>MOL_PROPERTY
VdW6
SciTegic.value.DoubleValue
-6.754

@<SCITEGIC>MOL_PROPERTY
VdW12
SciTegic.value.DoubleValue
7.276

@<SCITEGIC>MOL_PROPERTY
Bond
SciTegic.value.DoubleValue
0.207

@<SCITEGIC>MOL_PROPERTY
Angle
SciTegic.value.DoubleValue
1.137

@<SCITEGIC>MOL_PROPERTY
Pdih
SciTegic.value.DoubleValue
2.438

@<SCITEGIC>MOL_PROPERTY
Idih
SciTegic.value.DoubleValue
0.000

@<SCITEGIC>MOL_PROPERTY
Tether
SciTegic.value.DoubleValue
0.000

@<TRIPOS>MOLECULE
guest-2_vm2.mol2 : vm2 ligand conformer 46
          23          22           1
SMALL
USER_CHARGES
 
@<TRIPOS>ATOM
       1    N1      20.368582   18.357314   25.866515 N.4        1 MOL1        -0.5940
       2    H1      19.660702   17.641934   26.061396 H          1 MOL1         0.3649
       3    H2      20.598564   18.800506   26.762478 H          1 MOL1         0.3649
       4    H3      21.212537   17.868658   25.550721 H          1 MOL1         0.3649
       5    C1      19.884965   19.368248   24.846650 C.3        1 MOL1         0.0207
       6    H4      20.673329   20.113428   24.710033 H          1 MOL1         0.0950
       7    H5      19.005676   19.869984   25.259672 H          1 MOL1         0.0950
       8    C2      19.530273   18.735150   23.489557 C.3        1 MOL1        -0.1415
       9    H6      20.409358   18.213585   23.094793 H          1 MOL1         0.0976
      10    H7      18.750389   17.976186   23.636567 H          1 MOL1         0.0976
      11    C3      19.031260   19.800779   22.484228 C.3        1 MOL1        -0.1375
      12    H8      19.778005   20.598690   22.369524 H          1 MOL1         0.0976
      13    H9      18.138707   20.279863   22.910347 H          1 MOL1         0.0976
      14    C4      18.659007   19.216225   21.096443 C.3        1 MOL1        -0.1375
      15    H10     18.307630   18.180405   21.200202 H          1 MOL1         0.0976
      16    H11     17.801120   19.781419   20.706477 H          1 MOL1         0.0976
      17    C5      19.787116   19.292500   20.035916 C.3        1 MOL1        -0.1350
      18    H12     20.059899   20.342949   19.862933 H          1 MOL1         0.0976
      19    H13     19.392199   18.920067   19.080322 H          1 MOL1         0.0976
      20    C6      21.054796   18.486783   20.394690 C.3        1 MOL1        -0.2365
      21    H14     20.807076   17.445785   20.639253 H          1 MOL1         0.0987
      22    H15     21.581562   18.931684   21.247752 H          1 MOL1         0.0987
      23    H16     21.753963   18.475557   19.548562 H          1 MOL1         0.0987
@<TRIPOS>BOND
    1     1     2    1
    2     1     3    1
    3     1     4    1
    4     1     5    1
    5     5     6    1
    6     5     7    1
    7     5     8    1
    8     8     9    1
    9     8    10    1
   10     8    11    1
   11    11    12    1
   12    11    13    1
   13    11    14    1
   14    14    15    1
   15    14    16    1
   16    14    17    1
   17    17    18    1
   18    17    19    1
   19    17    20    1
   20    20    21    1
   21    20    22    1
   22    20    23    1
@<TRIPOS>SUBSTRUCTURE
       1 MOL1            1 RESIDUE      1      MOL     
@<SCITEGIC>MOL_PROPERTY
VM2 Rank
SciTegic.value.IntegerValue
46

@<SCITEGIC>MOL_PROPERTY
Conf_Id
SciTegic.value.IntegerValue
566

@<SCITEGIC>MOL_PROPERTY
Probability
SciTegic.value.DoubleValue
0.05

@<SCITEGIC>MOL_PROPERTY
Sum Probability
SciTegic.value.DoubleValue
99.36

@<SCITEGIC>MOL_PROPERTY
Delta G
SciTegic.value.DoubleValue
3.305

@<SCITEGIC>MOL_PROPERTY
G
SciTegic.value.DoubleValue
41.221

@<SCITEGIC>MOL_PROPERTY
E
SciTegic.value.DoubleValue
13.359

@<SCITEGIC>MOL_PROPERTY
-TS
SciTegic.value.DoubleValue
27.861

@<SCITEGIC>MOL_PROPERTY
U+W
SciTegic.value.DoubleValue
-5.420

@<SCITEGIC>MOL_PROPERTY
U
SciTegic.value.DoubleValue
50.253

@<SCITEGIC>MOL_PROPERTY
W
SciTegic.value.DoubleValue
-55.673

@<SCITEGIC>MOL_PROPERTY
W(PB)
SciTegic.value.DoubleValue
-57.770

@<SCITEGIC>MOL_PROPERTY
W(SA)
SciTegic.value.DoubleValue
2.097

@<SCITEGIC>MOL_PROPERTY
Valence
SciTegic.value.DoubleValue
4.702

@<SCITEGIC>MOL_PROPERTY
Coulomb
SciTegic.value.DoubleValue
44.992

@<SCITEGIC>MOL_PROPERTY
VdW
SciTegic.value.DoubleValue
0.559

@<SCITEGIC>MOL_PROPERTY
VdW6
SciTegic.value.DoubleValue
-6.152

@<SCITEGIC>MOL_PROPERTY
VdW12
SciTegic.value.DoubleValue
6.711

@<SCITEGIC>MOL_PROPERTY
Bond
SciTegic.value.DoubleValue
0.198

@<SCITEGIC>MOL_PROPERTY
Angle
SciTegic.value.DoubleValue
1.163

@<SCITEGIC>MOL_PROPERTY
Pdih
SciTegic.value.DoubleValue
3.340

@<SCITEGIC>MOL_PROPERTY
Idih
SciTegic.value.DoubleValue
0.000

@<SCITEGIC>MOL_PROPERTY
Tether
SciTegic.value.DoubleValue
0.000

@<TRIPOS>MOLECULE
guest-2_vm2.mol2 : vm2 ligand conformer 47
          23          22           1
SMALL
USER_CHARGES
 
@<TRIPOS>ATOM
       1    N1      19.559783   18.020860   25.829728 N.4        1 MOL1        -0.5940
       2    H1      19.338019   17.088732   25.465407 H          1 MOL1         0.3649
       3    H2      19.015039   18.141737   26.690367 H          1 MOL1         0.3649
       4    H3      20.548042   18.011266   26.101933 H          1 MOL1         0.3649
       5    C1      19.262442   19.109247   24.818293 C.3        1 MOL1         0.0207
       6    H4      19.492254   20.072481   25.281806 H          1 MOL1         0.0950
       7    H5      18.192068   19.081034   24.596983 H          1 MOL1         0.0950
       8    C2      20.064913   18.957564   23.513932 C.3        1 MOL1        -0.1415
       9    H6      21.138288   18.969635   23.745402 H          1 MOL1         0.0976
      10    H7      19.847810   17.979937   23.069215 H          1 MOL1         0.0976
      11    C3      19.738619   20.095040   22.516463 C.3        1 MOL1        -0.1375
      12    H8      19.992781   21.051229   22.994850 H          1 MOL1         0.0976
      13    H9      18.658427   20.132841   22.318462 H          1 MOL1         0.0976
      14    C4      20.521485   19.991051   21.181350 C.3        1 MOL1        -0.1375
      15    H10     20.753745   21.009765   20.841106 H          1 MOL1         0.0976
      16    H11     21.493450   19.505754   21.345443 H          1 MOL1         0.0976
      17    C5      19.757945   19.280388   20.034561 C.3        1 MOL1        -0.1350
      18    H12     20.372974   19.328154   19.125009 H          1 MOL1         0.0976
      19    H13     18.836140   19.833860   19.807139 H          1 MOL1         0.0976
      20    C6      19.410813   17.802850   20.319673 C.3        1 MOL1        -0.2365
      21    H14     20.302789   17.235986   20.616151 H          1 MOL1         0.0987
      22    H15     18.993642   17.327237   19.422648 H          1 MOL1         0.0987
      23    H16     18.659907   17.716164   21.114507 H          1 MOL1         0.0987
@<TRIPOS>BOND
    1     1     2    1
    2     1     3    1
    3     1     4    1
    4     1     5    1
    5     5     6    1
    6     5     7    1
    7     5     8    1
    8     8     9    1
    9     8    10    1
   10     8    11    1
   11    11    12    1
   12    11    13    1
   13    11    14    1
   14    14    15    1
   15    14    16    1
   16    14    17    1
   17    17    18    1
   18    17    19    1
   19    17    20    1
   20    20    21    1
   21    20    22    1
   22    20    23    1
@<TRIPOS>SUBSTRUCTURE
       1 MOL1            1 RESIDUE      1      MOL     
@<SCITEGIC>MOL_PROPERTY
VM2 Rank
SciTegic.value.IntegerValue
47

@<SCITEGIC>MOL_PROPERTY
Conf_Id
SciTegic.value.IntegerValue
164

@<SCITEGIC>MOL_PROPERTY
Probability
SciTegic.value.DoubleValue
0.05

@<SCITEGIC>MOL_PROPERTY
Sum Probability
SciTegic.value.DoubleValue
99.40

@<SCITEGIC>MOL_PROPERTY
Delta G
SciTegic.value.DoubleValue
3.353

@<SCITEGIC>MOL_PROPERTY
G
SciTegic.value.DoubleValue
41.269

@<SCITEGIC>MOL_PROPERTY
E
SciTegic.value.DoubleValue
13.408

@<SCITEGIC>MOL_PROPERTY
-TS
SciTegic.value.DoubleValue
27.861

@<SCITEGIC>MOL_PROPERTY
U+W
SciTegic.value.DoubleValue
-5.371

@<SCITEGIC>MOL_PROPERTY
U
SciTegic.value.DoubleValue
50.253

@<SCITEGIC>MOL_PROPERTY
W
SciTegic.value.DoubleValue
-55.624

@<SCITEGIC>MOL_PROPERTY
W(PB)
SciTegic.value.DoubleValue
-57.711

@<SCITEGIC>MOL_PROPERTY
W(SA)
SciTegic.value.DoubleValue
2.087

@<SCITEGIC>MOL_PROPERTY
Valence
SciTegic.value.DoubleValue
4.702

@<SCITEGIC>MOL_PROPERTY
Coulomb
SciTegic.value.DoubleValue
44.992

@<SCITEGIC>MOL_PROPERTY
VdW
SciTegic.value.DoubleValue
0.559

@<SCITEGIC>MOL_PROPERTY
VdW6
SciTegic.value.DoubleValue
-6.152

@<SCITEGIC>MOL_PROPERTY
VdW12
SciTegic.value.DoubleValue
6.711

@<SCITEGIC>MOL_PROPERTY
Bond
SciTegic.value.DoubleValue
0.198

@<SCITEGIC>MOL_PROPERTY
Angle
SciTegic.value.DoubleValue
1.163

@<SCITEGIC>MOL_PROPERTY
Pdih
SciTegic.value.DoubleValue
3.340

@<SCITEGIC>MOL_PROPERTY
Idih
SciTegic.value.DoubleValue
0.000

@<SCITEGIC>MOL_PROPERTY
Tether
SciTegic.value.DoubleValue
0.000

@<TRIPOS>MOLECULE
guest-2_vm2.mol2 : vm2 ligand conformer 48
          23          22           1
SMALL
USER_CHARGES
 
@<TRIPOS>ATOM
       1    N1      20.198142   17.911051   25.002934 N.4        1 MOL1        -0.5940
       2    H1      21.007592   18.325940   25.475561 H          1 MOL1         0.3649
       3    H2      20.526247   17.546054   24.104791 H          1 MOL1         0.3649
       4    H3      19.904073   17.106420   25.566983 H          1 MOL1         0.3649
       5    C1      19.074934   18.914645   24.827734 C.3        1 MOL1         0.0207
       6    H4      18.779816   19.240129   25.828978 H          1 MOL1         0.0950
       7    H5      18.221341   18.405641   24.372096 H          1 MOL1         0.0950
       8    C2      19.454442   20.153259   23.989476 C.3        1 MOL1        -0.1415
       9    H6      18.750677   20.956833   24.244112 H          1 MOL1         0.0976
      10    H7      20.447238   20.518066   24.284582 H          1 MOL1         0.0976
      11    C3      19.391874   19.935560   22.455876 C.3        1 MOL1        -0.1375
      12    H8      19.558009   20.904729   21.965638 H          1 MOL1         0.0976
      13    H9      18.376778   19.620841   22.178971 H          1 MOL1         0.0976
      14    C4      20.424254   18.916312   21.912531 C.3        1 MOL1        -0.1375
      15    H10     21.412833   19.140726   22.336334 H          1 MOL1         0.0976
      16    H11     20.158196   17.903279   22.238893 H          1 MOL1         0.0976
      17    C5      20.537925   18.926550   20.368966 C.3        1 MOL1        -0.1350
      18    H12     21.346149   18.244799   20.069235 H          1 MOL1         0.0976
      19    H13     20.836537   19.926544   20.024495 H          1 MOL1         0.0976
      20    C6      19.234429   18.499623   19.656483 C.3        1 MOL1        -0.2365
      21    H14     19.390235   18.443336   18.571367 H          1 MOL1         0.0987
      22    H15     18.423753   19.216573   19.836678 H          1 MOL1         0.0987
      23    H16     18.902250   17.511195   19.999502 H          1 MOL1         0.0987
@<TRIPOS>BOND
    1     1     2    1
    2     1     3    1
    3     1     4    1
    4     1     5    1
    5     5     6    1
    6     5     7    1
    7     5     8    1
    8     8     9    1
    9     8    10    1
   10     8    11    1
   11    11    12    1
   12    11    13    1
   13    11    14    1
   14    14    15    1
   15    14    16    1
   16    14    17    1
   17    17    18    1
   18    17    19    1
   19    17    20    1
   20    20    21    1
   21    20    22    1
   22    20    23    1
@<TRIPOS>SUBSTRUCTURE
       1 MOL1            1 RESIDUE      1      MOL     
@<SCITEGIC>MOL_PROPERTY
VM2 Rank
SciTegic.value.IntegerValue
48

@<SCITEGIC>MOL_PROPERTY
Conf_Id
SciTegic.value.IntegerValue
485

@<SCITEGIC>MOL_PROPERTY
Probability
SciTegic.value.DoubleValue
0.05

@<SCITEGIC>MOL_PROPERTY
Sum Probability
SciTegic.value.DoubleValue
99.45

@<SCITEGIC>MOL_PROPERTY
Delta G
SciTegic.value.DoubleValue
3.369

@<SCITEGIC>MOL_PROPERTY
G
SciTegic.value.DoubleValue
41.285

@<SCITEGIC>MOL_PROPERTY
E
SciTegic.value.DoubleValue
13.483

@<SCITEGIC>MOL_PROPERTY
-TS
SciTegic.value.DoubleValue
27.802

@<SCITEGIC>MOL_PROPERTY
U+W
SciTegic.value.DoubleValue
-5.296

@<SCITEGIC>MOL_PROPERTY
U
SciTegic.value.DoubleValue
50.658

@<SCITEGIC>MOL_PROPERTY
W
SciTegic.value.DoubleValue
-55.954

@<SCITEGIC>MOL_PROPERTY
W(PB)
SciTegic.value.DoubleValue
-58.036

@<SCITEGIC>MOL_PROPERTY
W(SA)
SciTegic.value.DoubleValue
2.082

@<SCITEGIC>MOL_PROPERTY
Valence
SciTegic.value.DoubleValue
3.782

@<SCITEGIC>MOL_PROPERTY
Coulomb
SciTegic.value.DoubleValue
46.354

@<SCITEGIC>MOL_PROPERTY
VdW
SciTegic.value.DoubleValue
0.523

@<SCITEGIC>MOL_PROPERTY
VdW6
SciTegic.value.DoubleValue
-6.754

@<SCITEGIC>MOL_PROPERTY
VdW12
SciTegic.value.DoubleValue
7.277

@<SCITEGIC>MOL_PROPERTY
Bond
SciTegic.value.DoubleValue
0.207

@<SCITEGIC>MOL_PROPERTY
Angle
SciTegic.value.DoubleValue
1.137

@<SCITEGIC>MOL_PROPERTY
Pdih
SciTegic.value.DoubleValue
2.438

@<SCITEGIC>MOL_PROPERTY
Idih
SciTegic.value.DoubleValue
0.000

@<SCITEGIC>MOL_PROPERTY
Tether
SciTegic.value.DoubleValue
0.000

@<TRIPOS>MOLECULE
guest-2_vm2.mol2 : vm2 ligand conformer 49
          23          22           1
SMALL
USER_CHARGES
 
@<TRIPOS>ATOM
       1    N1      19.592576   17.921926   25.738500 N.4        1 MOL1        -0.5940
       2    H1      19.392928   18.111880   26.726488 H          1 MOL1         0.3649
       3    H2      20.512995   17.472139   25.701977 H          1 MOL1         0.3649
       4    H3      18.905430   17.229448   25.423728 H          1 MOL1         0.3649
       5    C1      19.546803   19.184901   24.902570 C.3        1 MOL1         0.0207
       6    H4      20.279521   19.886288   25.310797 H          1 MOL1         0.0950
       7    H5      18.551972   19.625465   25.010719 H          1 MOL1         0.0950
       8    C2      19.843199   18.934530   23.413295 C.3        1 MOL1        -0.1415
       9    H6      20.836979   18.479035   23.309897 H          1 MOL1         0.0976
      10    H7      19.109633   18.219125   23.021412 H          1 MOL1         0.0976
      11    C3      19.782468   20.246330   22.598452 C.3        1 MOL1        -0.1375
      12    H8      20.420578   20.997345   23.084768 H          1 MOL1         0.0976
      13    H9      18.760217   20.648253   22.629835 H          1 MOL1         0.0976
      14    C4      20.236428   20.106475   21.122198 C.3        1 MOL1        -0.1375
      15    H10     20.193475   21.106101   20.667895 H          1 MOL1         0.0976
      16    H11     21.292825   19.807636   21.078163 H          1 MOL1         0.0976
      17    C5      19.371857   19.148920   20.261958 C.3        1 MOL1        -0.1350
      18    H12     19.315701   19.551096   19.240646 H          1 MOL1         0.0976
      19    H13     18.338424   19.127871   20.635032 H          1 MOL1         0.0976
      20    C6      19.942669   17.713918   20.177026 C.3        1 MOL1        -0.2365
      21    H14     20.949534   17.718247   19.739704 H          1 MOL1         0.0987
      22    H15     19.306681   17.085085   19.540630 H          1 MOL1         0.0987
      23    H16     20.004531   17.234765   21.160148 H          1 MOL1         0.0987
@<TRIPOS>BOND
    1     1     2    1
    2     1     3    1
    3     1     4    1
    4     1     5    1
    5     5     6    1
    6     5     7    1
    7     5     8    1
    8     8     9    1
    9     8    10    1
   10     8    11    1
   11    11    12    1
   12    11    13    1
   13    11    14    1
   14    14    15    1
   15    14    16    1
   16    14    17    1
   17    17    18    1
   18    17    19    1
   19    17    20    1
   20    20    21    1
   21    20    22    1
   22    20    23    1
@<TRIPOS>SUBSTRUCTURE
       1 MOL1            1 RESIDUE      1      MOL     
@<SCITEGIC>MOL_PROPERTY
VM2 Rank
SciTegic.value.IntegerValue
49

@<SCITEGIC>MOL_PROPERTY
Conf_Id
SciTegic.value.IntegerValue
326

@<SCITEGIC>MOL_PROPERTY
Probability
SciTegic.value.DoubleValue
0.04

@<SCITEGIC>MOL_PROPERTY
Sum Probability
SciTegic.value.DoubleValue
99.49

@<SCITEGIC>MOL_PROPERTY
Delta G
SciTegic.value.DoubleValue
3.396

@<SCITEGIC>MOL_PROPERTY
G
SciTegic.value.DoubleValue
41.313

@<SCITEGIC>MOL_PROPERTY
E
SciTegic.value.DoubleValue
13.460

@<SCITEGIC>MOL_PROPERTY
-TS
SciTegic.value.DoubleValue
27.853

@<SCITEGIC>MOL_PROPERTY
U+W
SciTegic.value.DoubleValue
-5.319

@<SCITEGIC>MOL_PROPERTY
U
SciTegic.value.DoubleValue
50.301

@<SCITEGIC>MOL_PROPERTY
W
SciTegic.value.DoubleValue
-55.620

@<SCITEGIC>MOL_PROPERTY
W(PB)
SciTegic.value.DoubleValue
-57.719

@<SCITEGIC>MOL_PROPERTY
W(SA)
SciTegic.value.DoubleValue
2.099

@<SCITEGIC>MOL_PROPERTY
Valence
SciTegic.value.DoubleValue
4.724

@<SCITEGIC>MOL_PROPERTY
Coulomb
SciTegic.value.DoubleValue
45.004

@<SCITEGIC>MOL_PROPERTY
VdW
SciTegic.value.DoubleValue
0.574

@<SCITEGIC>MOL_PROPERTY
VdW6
SciTegic.value.DoubleValue
-6.145

@<SCITEGIC>MOL_PROPERTY
VdW12
SciTegic.value.DoubleValue
6.719

@<SCITEGIC>MOL_PROPERTY
Bond
SciTegic.value.DoubleValue
0.198

@<SCITEGIC>MOL_PROPERTY
Angle
SciTegic.value.DoubleValue
1.201

@<SCITEGIC>MOL_PROPERTY
Pdih
SciTegic.value.DoubleValue
3.325

@<SCITEGIC>MOL_PROPERTY
Idih
SciTegic.value.DoubleValue
0.000

@<SCITEGIC>MOL_PROPERTY
Tether
SciTegic.value.DoubleValue
0.000

@<TRIPOS>MOLECULE
guest-2_vm2.mol2 : vm2 ligand conformer 50
          23          22           1
SMALL
USER_CHARGES
 
@<TRIPOS>ATOM
       1    N1      20.422683   18.267302   25.776299 N.4        1 MOL1        -0.5940
       2    H1      21.419675   18.275431   25.538150 H          1 MOL1         0.3649
       3    H2      20.097893   17.299496   25.683144 H          1 MOL1         0.3649
       4    H3      20.351828   18.510857   26.770142 H          1 MOL1         0.3649
       5    C1      19.625335   19.217594   24.906147 C.3        1 MOL1         0.0207
       6    H4      20.003272   20.229286   25.076807 H          1 MOL1         0.0950
       7    H5      18.582788   19.180395   25.233530 H          1 MOL1         0.0950
       8    C2      19.710010   18.879122   23.407234 C.3        1 MOL1        -0.1415
       9    H6      20.761814   18.906522   23.096673 H          1 MOL1         0.0976
      10    H7      19.343043   17.857478   23.241874 H          1 MOL1         0.0976
      11    C3      18.886954   19.873730   22.557637 C.3        1 MOL1        -0.1375
      12    H8      19.317366   20.880082   22.655233 H          1 MOL1         0.0976
      13    H9      17.869583   19.935930   22.968487 H          1 MOL1         0.0976
      14    C4      18.781922   19.501271   21.055902 C.3        1 MOL1        -0.1375
      15    H10     18.255547   18.543853   20.939717 H          1 MOL1         0.0976
      16    H11     18.139469   20.251446   20.574258 H          1 MOL1         0.0976
      17    C5      20.133503   19.465823   20.296705 C.3        1 MOL1        -0.1350
      18    H12     20.844763   20.170689   20.749347 H          1 MOL1         0.0976
      19    H13     19.967390   19.822275   19.270389 H          1 MOL1         0.0976
      20    C6      20.755593   18.052158   20.214075 C.3        1 MOL1        -0.2365
      21    H14     21.696644   18.079504   19.649638 H          1 MOL1         0.0987
      22    H15     20.079829   17.356406   19.699955 H          1 MOL1         0.0987
      23    H16     20.975113   17.638576   21.204380 H          1 MOL1         0.0987
@<TRIPOS>BOND
    1     1     2    1
    2     1     3    1
    3     1     4    1
    4     1     5    1
    5     5     6    1
    6     5     7    1
    7     5     8    1
    8     8     9    1
    9     8    10    1
   10     8    11    1
   11    11    12    1
   12    11    13    1
   13    11    14    1
   14    14    15    1
   15    14    16    1
   16    14    17    1
   17    17    18    1
   18    17    19    1
   19    17    20    1
   20    20    21    1
   21    20    22    1
   22    20    23    1
@<TRIPOS>SUBSTRUCTURE
       1 MOL1            1 RESIDUE      1      MOL     
@<SCITEGIC>MOL_PROPERTY
VM2 Rank
SciTegic.value.IntegerValue
50

@<SCITEGIC>MOL_PROPERTY
Conf_Id
SciTegic.value.IntegerValue
177

@<SCITEGIC>MOL_PROPERTY
Probability
SciTegic.value.DoubleValue
0.04

@<SCITEGIC>MOL_PROPERTY
Sum Probability
SciTegic.value.DoubleValue
99.53

@<SCITEGIC>MOL_PROPERTY
Delta G
SciTegic.value.DoubleValue
3.454

@<SCITEGIC>MOL_PROPERTY
G
SciTegic.value.DoubleValue
41.370

@<SCITEGIC>MOL_PROPERTY
E
SciTegic.value.DoubleValue
13.518

@<SCITEGIC>MOL_PROPERTY
-TS
SciTegic.value.DoubleValue
27.853

@<SCITEGIC>MOL_PROPERTY
U+W
SciTegic.value.DoubleValue
-5.261

@<SCITEGIC>MOL_PROPERTY
U
SciTegic.value.DoubleValue
50.301

@<SCITEGIC>MOL_PROPERTY
W
SciTegic.value.DoubleValue
-55.563

@<SCITEGIC>MOL_PROPERTY
W(PB)
SciTegic.value.DoubleValue
-57.697

@<SCITEGIC>MOL_PROPERTY
W(SA)
SciTegic.value.DoubleValue
2.134

@<SCITEGIC>MOL_PROPERTY
Valence
SciTegic.value.DoubleValue
4.724

@<SCITEGIC>MOL_PROPERTY
Coulomb
SciTegic.value.DoubleValue
45.004

@<SCITEGIC>MOL_PROPERTY
VdW
SciTegic.value.DoubleValue
0.574

@<SCITEGIC>MOL_PROPERTY
VdW6
SciTegic.value.DoubleValue
-6.145

@<SCITEGIC>MOL_PROPERTY
VdW12
SciTegic.value.DoubleValue
6.719

@<SCITEGIC>MOL_PROPERTY
Bond
SciTegic.value.DoubleValue
0.198

@<SCITEGIC>MOL_PROPERTY
Angle
SciTegic.value.DoubleValue
1.201

@<SCITEGIC>MOL_PROPERTY
Pdih
SciTegic.value.DoubleValue
3.325

@<SCITEGIC>MOL_PROPERTY
Idih
SciTegic.value.DoubleValue
0.000

@<SCITEGIC>MOL_PROPERTY
Tether
SciTegic.value.DoubleValue
0.000

@<TRIPOS>MOLECULE
guest-2_vm2.mol2 : vm2 ligand conformer 51
          23          22           1
SMALL
USER_CHARGES
 
@<TRIPOS>ATOM
       1    N1      19.003087   18.059476   25.090440 N.4        1 MOL1        -0.5940
       2    H1      19.691724   17.346446   25.351444 H          1 MOL1         0.3649
       3    H2      18.582783   17.763728   24.205325 H          1 MOL1         0.3649
       4    H3      18.263144   18.032344   25.800248 H          1 MOL1         0.3649
       5    C1      19.631759   19.435797   24.986724 C.3        1 MOL1         0.0207
       6    H4      20.044815   19.671155   25.971364 H          1 MOL1         0.0950
       7    H5      18.845686   20.163173   24.766893 H          1 MOL1         0.0950
       8    C2      20.754623   19.542623   23.933800 C.3        1 MOL1        -0.1415
       9    H6      21.405040   20.378478   24.223938 H          1 MOL1         0.0976
      10    H7      21.386736   18.645223   23.964752 H          1 MOL1         0.0976
      11    C3      20.261619   19.806261   22.487685 C.3        1 MOL1        -0.1375
      12    H8      21.146179   19.976583   21.861088 H          1 MOL1         0.0976
      13    H9      19.684444   20.740864   22.463416 H          1 MOL1         0.0976
      14    C4      19.412952   18.660224   21.881649 C.3        1 MOL1        -0.1375
      15    H10     19.952436   17.707189   21.970516 H          1 MOL1         0.0976
      16    H11     18.484368   18.555876   22.455595 H          1 MOL1         0.0976
      17    C5      19.024412   18.897087   20.401791 C.3        1 MOL1        -0.1350
      18    H12     18.501160   19.858492   20.303057 H          1 MOL1         0.0976
      19    H13     18.304154   18.123717   20.100088 H          1 MOL1         0.0976
      20    C6      20.227548   18.855533   19.431912 C.3        1 MOL1        -0.2365
      21    H14     19.883967   18.925969   18.391751 H          1 MOL1         0.0987
      22    H15     20.787316   17.917099   19.536791 H          1 MOL1         0.0987
      23    H16     20.918149   19.689538   19.606289 H          1 MOL1         0.0987
@<TRIPOS>BOND
    1     1     2    1
    2     1     3    1
    3     1     4    1
    4     1     5    1
    5     5     6    1
    6     5     7    1
    7     5     8    1
    8     8     9    1
    9     8    10    1
   10     8    11    1
   11    11    12    1
   12    11    13    1
   13    11    14    1
   14    14    15    1
   15    14    16    1
   16    14    17    1
   17    17    18    1
   18    17    19    1
   19    17    20    1
   20    20    21    1
   21    20    22    1
   22    20    23    1
@<TRIPOS>SUBSTRUCTURE
       1 MOL1            1 RESIDUE      1      MOL     
@<SCITEGIC>MOL_PROPERTY
VM2 Rank
SciTegic.value.IntegerValue
51

@<SCITEGIC>MOL_PROPERTY
Conf_Id
SciTegic.value.IntegerValue
699

@<SCITEGIC>MOL_PROPERTY
Probability
SciTegic.value.DoubleValue
0.04

@<SCITEGIC>MOL_PROPERTY
Sum Probability
SciTegic.value.DoubleValue
99.57

@<SCITEGIC>MOL_PROPERTY
Delta G
SciTegic.value.DoubleValue
3.516

@<SCITEGIC>MOL_PROPERTY
G
SciTegic.value.DoubleValue
41.432

@<SCITEGIC>MOL_PROPERTY
E
SciTegic.value.DoubleValue
13.746

@<SCITEGIC>MOL_PROPERTY
-TS
SciTegic.value.DoubleValue
27.686

@<SCITEGIC>MOL_PROPERTY
U+W
SciTegic.value.DoubleValue
-5.033

@<SCITEGIC>MOL_PROPERTY
U
SciTegic.value.DoubleValue
50.916

@<SCITEGIC>MOL_PROPERTY
W
SciTegic.value.DoubleValue
-55.950

@<SCITEGIC>MOL_PROPERTY
W(PB)
SciTegic.value.DoubleValue
-58.033

@<SCITEGIC>MOL_PROPERTY
W(SA)
SciTegic.value.DoubleValue
2.084

@<SCITEGIC>MOL_PROPERTY
Valence
SciTegic.value.DoubleValue
3.987

@<SCITEGIC>MOL_PROPERTY
Coulomb
SciTegic.value.DoubleValue
46.335

@<SCITEGIC>MOL_PROPERTY
VdW
SciTegic.value.DoubleValue
0.594

@<SCITEGIC>MOL_PROPERTY
VdW6
SciTegic.value.DoubleValue
-6.627

@<SCITEGIC>MOL_PROPERTY
VdW12
SciTegic.value.DoubleValue
7.221

@<SCITEGIC>MOL_PROPERTY
Bond
SciTegic.value.DoubleValue
0.215

@<SCITEGIC>MOL_PROPERTY
Angle
SciTegic.value.DoubleValue
1.275

@<SCITEGIC>MOL_PROPERTY
Pdih
SciTegic.value.DoubleValue
2.497

@<SCITEGIC>MOL_PROPERTY
Idih
SciTegic.value.DoubleValue
0.000

@<SCITEGIC>MOL_PROPERTY
Tether
SciTegic.value.DoubleValue
0.000

@<TRIPOS>MOLECULE
guest-2_vm2.mol2 : vm2 ligand conformer 52
          23          22           1
SMALL
USER_CHARGES
 
@<TRIPOS>ATOM
       1    N1      20.789280   18.802047   25.171571 N.4        1 MOL1        -0.5940
       2    H1      21.273055   19.283681   25.937123 H          1 MOL1         0.3649
       3    H2      21.362240   18.919507   24.331646 H          1 MOL1         0.3649
       4    H3      20.790285   17.803016   25.401127 H          1 MOL1         0.3649
       5    C1      19.381687   19.331590   24.975325 C.3        1 MOL1         0.0207
       6    H4      19.435735   20.408384   24.793921 H          1 MOL1         0.0950
       7    H5      18.848823   19.173386   25.916895 H          1 MOL1         0.0950
       8    C2      18.599271   18.646263   23.835574 C.3        1 MOL1        -0.1415
       9    H6      18.788333   17.564600   23.846170 H          1 MOL1         0.0976
      10    H7      17.528470   18.766241   24.047395 H          1 MOL1         0.0976
      11    C3      18.870811   19.228088   22.424351 C.3        1 MOL1        -0.1375
      12    H8      18.616002   20.296819   22.414841 H          1 MOL1         0.0976
      13    H9      18.177994   18.742161   21.725814 H          1 MOL1         0.0976
      14    C4      20.324974   19.040246   21.923310 C.3        1 MOL1        -0.1375
      15    H10     21.005971   19.605973   22.570440 H          1 MOL1         0.0976
      16    H11     20.614460   17.983195   22.001117 H          1 MOL1         0.0976
      17    C5      20.544625   19.529748   20.471006 C.3        1 MOL1        -0.1350
      18    H12     21.621184   19.504384   20.251286 H          1 MOL1         0.0976
      19    H13     20.238279   20.581425   20.381737 H          1 MOL1         0.0976
      20    C6      19.805351   18.679019   19.412863 C.3        1 MOL1        -0.2365
      21    H14     20.069464   17.617498   19.504601 H          1 MOL1         0.0987
      22    H15     20.077108   19.005369   18.400644 H          1 MOL1         0.0987
      23    H16     18.716521   18.772060   19.506104 H          1 MOL1         0.0987
@<TRIPOS>BOND
    1     1     2    1
    2     1     3    1
    3     1     4    1
    4     1     5    1
    5     5     6    1
    6     5     7    1
    7     5     8    1
    8     8     9    1
    9     8    10    1
   10     8    11    1
   11    11    12    1
   12    11    13    1
   13    11    14    1
   14    14    15    1
   15    14    16    1
   16    14    17    1
   17    17    18    1
   18    17    19    1
   19    17    20    1
   20    20    21    1
   21    20    22    1
   22    20    23    1
@<TRIPOS>SUBSTRUCTURE
       1 MOL1            1 RESIDUE      1      MOL     
@<SCITEGIC>MOL_PROPERTY
VM2 Rank
SciTegic.value.IntegerValue
52

@<SCITEGIC>MOL_PROPERTY
Conf_Id
SciTegic.value.IntegerValue
353

@<SCITEGIC>MOL_PROPERTY
Probability
SciTegic.value.DoubleValue
0.04

@<SCITEGIC>MOL_PROPERTY
Sum Probability
SciTegic.value.DoubleValue
99.60

@<SCITEGIC>MOL_PROPERTY
Delta G
SciTegic.value.DoubleValue
3.521

@<SCITEGIC>MOL_PROPERTY
G
SciTegic.value.DoubleValue
41.438

@<SCITEGIC>MOL_PROPERTY
E
SciTegic.value.DoubleValue
13.750

@<SCITEGIC>MOL_PROPERTY
-TS
SciTegic.value.DoubleValue
27.687

@<SCITEGIC>MOL_PROPERTY
U+W
SciTegic.value.DoubleValue
-5.029

@<SCITEGIC>MOL_PROPERTY
U
SciTegic.value.DoubleValue
50.917

@<SCITEGIC>MOL_PROPERTY
W
SciTegic.value.DoubleValue
-55.945

@<SCITEGIC>MOL_PROPERTY
W(PB)
SciTegic.value.DoubleValue
-58.003

@<SCITEGIC>MOL_PROPERTY
W(SA)
SciTegic.value.DoubleValue
2.058

@<SCITEGIC>MOL_PROPERTY
Valence
SciTegic.value.DoubleValue
3.987

@<SCITEGIC>MOL_PROPERTY
Coulomb
SciTegic.value.DoubleValue
46.335

@<SCITEGIC>MOL_PROPERTY
VdW
SciTegic.value.DoubleValue
0.594

@<SCITEGIC>MOL_PROPERTY
VdW6
SciTegic.value.DoubleValue
-6.628

@<SCITEGIC>MOL_PROPERTY
VdW12
SciTegic.value.DoubleValue
7.222

@<SCITEGIC>MOL_PROPERTY
Bond
SciTegic.value.DoubleValue
0.215

@<SCITEGIC>MOL_PROPERTY
Angle
SciTegic.value.DoubleValue
1.274

@<SCITEGIC>MOL_PROPERTY
Pdih
SciTegic.value.DoubleValue
2.498

@<SCITEGIC>MOL_PROPERTY
Idih
SciTegic.value.DoubleValue
0.000

@<SCITEGIC>MOL_PROPERTY
Tether
SciTegic.value.DoubleValue
0.000

@<TRIPOS>MOLECULE
guest-2_vm2.mol2 : vm2 ligand conformer 53
          23          22           1
SMALL
USER_CHARGES
 
@<TRIPOS>ATOM
       1    N1      20.201132   18.033927   25.416899 N.4        1 MOL1        -0.5940
       2    H1      21.025304   17.458869   25.621798 H          1 MOL1         0.3649
       3    H2      19.388755   17.409197   25.438652 H          1 MOL1         0.3649
       4    H3      20.096150   18.691863   26.195922 H          1 MOL1         0.3649
       5    C1      20.329336   18.748609   24.087099 C.3        1 MOL1         0.0207
       6    H4      20.473021   17.991377   23.314346 H          1 MOL1         0.0950
       7    H5      21.227085   19.371428   24.125328 H          1 MOL1         0.0950
       8    C2      19.107298   19.626067   23.754235 C.3        1 MOL1        -0.1415
       9    H6      18.192251   19.019116   23.752244 H          1 MOL1         0.0976
      10    H7      18.988307   20.362810   24.559850 H          1 MOL1         0.0976
      11    C3      19.244649   20.385573   22.410126 C.3        1 MOL1        -0.1375
      12    H8      20.273604   20.746625   22.279983 H          1 MOL1         0.0976
      13    H9      18.624503   21.290616   22.470720 H          1 MOL1         0.0976
      14    C4      18.779261   19.591526   21.159271 C.3        1 MOL1        -0.1375
      15    H10     17.719811   19.326892   21.280558 H          1 MOL1         0.0976
      16    H11     18.819409   20.260629   20.288670 H          1 MOL1         0.0976
      17    C5      19.577091   18.306114   20.827456 C.3        1 MOL1        -0.1350
      18    H12     19.136420   17.846483   19.931745 H          1 MOL1         0.0976
      19    H13     19.455433   17.565254   21.627626 H          1 MOL1         0.0976
      20    C6      21.077233   18.565184   20.558914 C.3        1 MOL1        -0.2365
      21    H14     21.210901   19.294693   19.749662 H          1 MOL1         0.0987
      22    H15     21.580136   17.636652   20.259316 H          1 MOL1         0.0987
      23    H16     21.590206   18.946657   21.449750 H          1 MOL1         0.0987
@<TRIPOS>BOND
    1     1     2    1
    2     1     3    1
    3     1     4    1
    4     1     5    1
    5     5     6    1
    6     5     7    1
    7     5     8    1
    8     8     9    1
    9     8    10    1
   10     8    11    1
   11    11    12    1
   12    11    13    1
   13    11    14    1
   14    14    15    1
   15    14    16    1
   16    14    17    1
   17    17    18    1
   18    17    19    1
   19    17    20    1
   20    20    21    1
   21    20    22    1
   22    20    23    1
@<TRIPOS>SUBSTRUCTURE
       1 MOL1            1 RESIDUE      1      MOL     
@<SCITEGIC>MOL_PROPERTY
VM2 Rank
SciTegic.value.IntegerValue
53

@<SCITEGIC>MOL_PROPERTY
Conf_Id
SciTegic.value.IntegerValue
141

@<SCITEGIC>MOL_PROPERTY
Probability
SciTegic.value.DoubleValue
0.03

@<SCITEGIC>MOL_PROPERTY
Sum Probability
SciTegic.value.DoubleValue
99.63

@<SCITEGIC>MOL_PROPERTY
Delta G
SciTegic.value.DoubleValue
3.567

@<SCITEGIC>MOL_PROPERTY
G
SciTegic.value.DoubleValue
41.483

@<SCITEGIC>MOL_PROPERTY
E
SciTegic.value.DoubleValue
13.154

@<SCITEGIC>MOL_PROPERTY
-TS
SciTegic.value.DoubleValue
28.329

@<SCITEGIC>MOL_PROPERTY
U+W
SciTegic.value.DoubleValue
-5.625

@<SCITEGIC>MOL_PROPERTY
U
SciTegic.value.DoubleValue
50.461

@<SCITEGIC>MOL_PROPERTY
W
SciTegic.value.DoubleValue
-56.086

@<SCITEGIC>MOL_PROPERTY
W(PB)
SciTegic.value.DoubleValue
-58.152

@<SCITEGIC>MOL_PROPERTY
W(SA)
SciTegic.value.DoubleValue
2.066

@<SCITEGIC>MOL_PROPERTY
Valence
SciTegic.value.DoubleValue
4.630

@<SCITEGIC>MOL_PROPERTY
Coulomb
SciTegic.value.DoubleValue
45.564

@<SCITEGIC>MOL_PROPERTY
VdW
SciTegic.value.DoubleValue
0.266

@<SCITEGIC>MOL_PROPERTY
VdW6
SciTegic.value.DoubleValue
-7.363

@<SCITEGIC>MOL_PROPERTY
VdW12
SciTegic.value.DoubleValue
7.629

@<SCITEGIC>MOL_PROPERTY
Bond
SciTegic.value.DoubleValue
0.225

@<SCITEGIC>MOL_PROPERTY
Angle
SciTegic.value.DoubleValue
1.702

@<SCITEGIC>MOL_PROPERTY
Pdih
SciTegic.value.DoubleValue
2.703

@<SCITEGIC>MOL_PROPERTY
Idih
SciTegic.value.DoubleValue
0.000

@<SCITEGIC>MOL_PROPERTY
Tether
SciTegic.value.DoubleValue
0.000

@<TRIPOS>MOLECULE
guest-2_vm2.mol2 : vm2 ligand conformer 54
          23          22           1
SMALL
USER_CHARGES
 
@<TRIPOS>ATOM
       1    N1      19.942507   17.926106   25.405081 N.4        1 MOL1        -0.5940
       2    H1      19.756561   16.930055   25.563956 H          1 MOL1         0.3649
       3    H2      19.489293   18.438906   26.168239 H          1 MOL1         0.3649
       4    H3      20.953193   18.061182   25.509894 H          1 MOL1         0.3649
       5    C1      19.449029   18.381689   24.046958 C.3        1 MOL1         0.0207
       6    H4      18.375217   18.182740   23.995337 H          1 MOL1         0.0950
       7    H5      19.945071   17.771338   23.290250 H          1 MOL1         0.0950
       8    C2      19.709321   19.877011   23.781679 C.3        1 MOL1        -0.1415
       9    H6      19.207905   20.454350   24.569858 H          1 MOL1         0.0976
      10    H7      20.781192   20.098249   23.870283 H          1 MOL1         0.0976
      11    C3      19.178808   20.358142   22.407120 C.3        1 MOL1        -0.1375
      12    H8      18.967142   21.433444   22.486340 H          1 MOL1         0.0976
      13    H9      18.211675   19.887195   22.185967 H          1 MOL1         0.0976
      14    C4      20.164996   20.169135   21.222448 C.3        1 MOL1        -0.1375
      15    H10     19.729981   20.640169   20.330177 H          1 MOL1         0.0976
      16    H11     21.085822   20.729932   21.434019 H          1 MOL1         0.0976
      17    C5      20.542850   18.708662   20.871503 C.3        1 MOL1        -0.1350
      18    H12     21.091335   18.247148   21.702235 H          1 MOL1         0.0976
      19    H13     21.247075   18.726238   20.027992 H          1 MOL1         0.0976
      20    C6      19.328489   17.836257   20.479211 C.3        1 MOL1        -0.2365
      21    H14     18.629356   17.712556   21.314774 H          1 MOL1         0.0987
      22    H15     19.657536   16.835240   20.171748 H          1 MOL1         0.0987
      23    H16     18.780363   18.281532   19.638837 H          1 MOL1         0.0987
@<TRIPOS>BOND
    1     1     2    1
    2     1     3    1
    3     1     4    1
    4     1     5    1
    5     5     6    1
    6     5     7    1
    7     5     8    1
    8     8     9    1
    9     8    10    1
   10     8    11    1
   11    11    12    1
   12    11    13    1
   13    11    14    1
   14    14    15    1
   15    14    16    1
   16    14    17    1
   17    17    18    1
   18    17    19    1
   19    17    20    1
   20    20    21    1
   21    20    22    1
   22    20    23    1
@<TRIPOS>SUBSTRUCTURE
       1 MOL1            1 RESIDUE      1      MOL     
@<SCITEGIC>MOL_PROPERTY
VM2 Rank
SciTegic.value.IntegerValue
54

@<SCITEGIC>MOL_PROPERTY
Conf_Id
SciTegic.value.IntegerValue
181

@<SCITEGIC>MOL_PROPERTY
Probability
SciTegic.value.DoubleValue
0.03

@<SCITEGIC>MOL_PROPERTY
Sum Probability
SciTegic.value.DoubleValue
99.67

@<SCITEGIC>MOL_PROPERTY
Delta G
SciTegic.value.DoubleValue
3.584

@<SCITEGIC>MOL_PROPERTY
G
SciTegic.value.DoubleValue
41.501

@<SCITEGIC>MOL_PROPERTY
E
SciTegic.value.DoubleValue
13.171

@<SCITEGIC>MOL_PROPERTY
-TS
SciTegic.value.DoubleValue
28.330

@<SCITEGIC>MOL_PROPERTY
U+W
SciTegic.value.DoubleValue
-5.608

@<SCITEGIC>MOL_PROPERTY
U
SciTegic.value.DoubleValue
50.461

@<SCITEGIC>MOL_PROPERTY
W
SciTegic.value.DoubleValue
-56.069

@<SCITEGIC>MOL_PROPERTY
W(PB)
SciTegic.value.DoubleValue
-58.143

@<SCITEGIC>MOL_PROPERTY
W(SA)
SciTegic.value.DoubleValue
2.075

@<SCITEGIC>MOL_PROPERTY
Valence
SciTegic.value.DoubleValue
4.630

@<SCITEGIC>MOL_PROPERTY
Coulomb
SciTegic.value.DoubleValue
45.564

@<SCITEGIC>MOL_PROPERTY
VdW
SciTegic.value.DoubleValue
0.267

@<SCITEGIC>MOL_PROPERTY
VdW6
SciTegic.value.DoubleValue
-7.363

@<SCITEGIC>MOL_PROPERTY
VdW12
SciTegic.value.DoubleValue
7.629

@<SCITEGIC>MOL_PROPERTY
Bond
SciTegic.value.DoubleValue
0.225

@<SCITEGIC>MOL_PROPERTY
Angle
SciTegic.value.DoubleValue
1.702

@<SCITEGIC>MOL_PROPERTY
Pdih
SciTegic.value.DoubleValue
2.703

@<SCITEGIC>MOL_PROPERTY
Idih
SciTegic.value.DoubleValue
0.000

@<SCITEGIC>MOL_PROPERTY
Tether
SciTegic.value.DoubleValue
0.000

@<TRIPOS>MOLECULE
guest-2_vm2.mol2 : vm2 ligand conformer 55
          23          22           1
SMALL
USER_CHARGES
 
@<TRIPOS>ATOM
       1    N1      19.655835   19.272005   25.798867 N.4        1 MOL1        -0.5940
       2    H1      19.882165   20.227010   25.505147 H          1 MOL1         0.3649
       3    H2      20.534213   18.825273   26.080842 H          1 MOL1         0.3649
       4    H3      19.075056   19.347294   26.640861 H          1 MOL1         0.3649
       5    C1      18.955984   18.496117   24.700029 C.3        1 MOL1         0.0207
       6    H4      18.020240   19.010297   24.464625 H          1 MOL1         0.0950
       7    H5      18.710515   17.507457   25.097356 H          1 MOL1         0.0950
       8    C2      19.796447   18.336872   23.418229 C.3        1 MOL1        -0.1415
       9    H6      20.737041   17.824750   23.660681 H          1 MOL1         0.0976
      10    H7      19.254601   17.675164   22.733237 H          1 MOL1         0.0976
      11    C3      20.097460   19.692386   22.729284 C.3        1 MOL1        -0.1375
      12    H8      20.707934   20.301261   23.409418 H          1 MOL1         0.0976
      13    H9      19.167252   20.254759   22.568645 H          1 MOL1         0.0976
      14    C4      20.866952   19.544585   21.390578 C.3        1 MOL1        -0.1375
      15    H10     21.564237   20.389185   21.301502 H          1 MOL1         0.0976
      16    H11     21.495351   18.643490   21.408915 H          1 MOL1         0.0976
      17    C5      19.971734   19.544762   20.124961 C.3        1 MOL1        -0.1350
      18    H12     20.620950   19.509842   19.238895 H          1 MOL1         0.0976
      19    H13     19.423045   20.494901   20.062120 H          1 MOL1         0.0976
      20    C6      18.971587   18.370274   20.052052 C.3        1 MOL1        -0.2365
      21    H14     19.482967   17.406300   20.170712 H          1 MOL1         0.0987
      22    H15     18.460627   18.361678   19.080591 H          1 MOL1         0.0987
      23    H16     18.199723   18.455224   20.826834 H          1 MOL1         0.0987
@<TRIPOS>BOND
    1     1     2    1
    2     1     3    1
    3     1     4    1
    4     1     5    1
    5     5     6    1
    6     5     7    1
    7     5     8    1
    8     8     9    1
    9     8    10    1
   10     8    11    1
   11    11    12    1
   12    11    13    1
   13    11    14    1
   14    14    15    1
   15    14    16    1
   16    14    17    1
   17    17    18    1
   18    17    19    1
   19    17    20    1
   20    20    21    1
   21    20    22    1
   22    20    23    1
@<TRIPOS>SUBSTRUCTURE
       1 MOL1            1 RESIDUE      1      MOL     
@<SCITEGIC>MOL_PROPERTY
VM2 Rank
SciTegic.value.IntegerValue
55

@<SCITEGIC>MOL_PROPERTY
Conf_Id
SciTegic.value.IntegerValue
475

@<SCITEGIC>MOL_PROPERTY
Probability
SciTegic.value.DoubleValue
0.03

@<SCITEGIC>MOL_PROPERTY
Sum Probability
SciTegic.value.DoubleValue
99.69

@<SCITEGIC>MOL_PROPERTY
Delta G
SciTegic.value.DoubleValue
3.653

@<SCITEGIC>MOL_PROPERTY
G
SciTegic.value.DoubleValue
41.569

@<SCITEGIC>MOL_PROPERTY
E
SciTegic.value.DoubleValue
13.583

@<SCITEGIC>MOL_PROPERTY
-TS
SciTegic.value.DoubleValue
27.986

@<SCITEGIC>MOL_PROPERTY
U+W
SciTegic.value.DoubleValue
-5.196

@<SCITEGIC>MOL_PROPERTY
U
SciTegic.value.DoubleValue
50.626

@<SCITEGIC>MOL_PROPERTY
W
SciTegic.value.DoubleValue
-55.822

@<SCITEGIC>MOL_PROPERTY
W(PB)
SciTegic.value.DoubleValue
-57.895

@<SCITEGIC>MOL_PROPERTY
W(SA)
SciTegic.value.DoubleValue
2.073

@<SCITEGIC>MOL_PROPERTY
Valence
SciTegic.value.DoubleValue
4.836

@<SCITEGIC>MOL_PROPERTY
Coulomb
SciTegic.value.DoubleValue
45.097

@<SCITEGIC>MOL_PROPERTY
VdW
SciTegic.value.DoubleValue
0.692

@<SCITEGIC>MOL_PROPERTY
VdW6
SciTegic.value.DoubleValue
-6.655

@<SCITEGIC>MOL_PROPERTY
VdW12
SciTegic.value.DoubleValue
7.347

@<SCITEGIC>MOL_PROPERTY
Bond
SciTegic.value.DoubleValue
0.223

@<SCITEGIC>MOL_PROPERTY
Angle
SciTegic.value.DoubleValue
1.167

@<SCITEGIC>MOL_PROPERTY
Pdih
SciTegic.value.DoubleValue
3.447

@<SCITEGIC>MOL_PROPERTY
Idih
SciTegic.value.DoubleValue
0.000

@<SCITEGIC>MOL_PROPERTY
Tether
SciTegic.value.DoubleValue
0.000

@<TRIPOS>MOLECULE
guest-2_vm2.mol2 : vm2 ligand conformer 56
          23          22           1
SMALL
USER_CHARGES
 
@<TRIPOS>ATOM
       1    N1      19.417699   19.173174   25.787974 N.4        1 MOL1        -0.5940
       2    H1      19.706992   19.610201   26.669590 H          1 MOL1         0.3649
       3    H2      19.095016   18.227219   26.015287 H          1 MOL1         0.3649
       4    H3      18.605763   19.696576   25.446887 H          1 MOL1         0.3649
       5    C1      20.543510   19.156072   24.772348 C.3        1 MOL1         0.0207
       6    H4      21.384670   18.619135   25.219250 H          1 MOL1         0.0950
       7    H5      20.855138   20.188733   24.593705 H          1 MOL1         0.0950
       8    C2      20.165369   18.490163   23.435062 C.3        1 MOL1        -0.1415
       9    H6      21.067283   18.428632   22.815842 H          1 MOL1         0.0976
      10    H7      19.848435   17.455263   23.620275 H          1 MOL1         0.0976
      11    C3      19.048135   19.256038   22.681471 C.3        1 MOL1        -0.1375
      12    H8      19.315824   20.316442   22.575444 H          1 MOL1         0.0976
      13    H9      18.135763   19.231783   23.292192 H          1 MOL1         0.0976
      14    C4      18.716242   18.650355   21.292551 C.3        1 MOL1        -0.1375
      15    H10     18.911286   17.569082   21.291096 H          1 MOL1         0.0976
      16    H11     17.635762   18.755817   21.122460 H          1 MOL1         0.0976
      17    C5      19.442925   19.324926   20.100876 C.3        1 MOL1        -0.1350
      18    H12     19.160620   20.385826   20.050204 H          1 MOL1         0.0976
      19    H13     19.080521   18.869407   19.168685 H          1 MOL1         0.0976
      20    C6      20.982120   19.206272   20.143719 C.3        1 MOL1        -0.2365
      21    H14     21.422375   19.593286   19.215665 H          1 MOL1         0.0987
      22    H15     21.296084   18.160202   20.253260 H          1 MOL1         0.0987
      23    H16     21.403867   19.787420   20.972979 H          1 MOL1         0.0987
@<TRIPOS>BOND
    1     1     2    1
    2     1     3    1
    3     1     4    1
    4     1     5    1
    5     5     6    1
    6     5     7    1
    7     5     8    1
    8     8     9    1
    9     8    10    1
   10     8    11    1
   11    11    12    1
   12    11    13    1
   13    11    14    1
   14    14    15    1
   15    14    16    1
   16    14    17    1
   17    17    18    1
   18    17    19    1
   19    17    20    1
   20    20    21    1
   21    20    22    1
   22    20    23    1
@<TRIPOS>SUBSTRUCTURE
       1 MOL1            1 RESIDUE      1      MOL     
@<SCITEGIC>MOL_PROPERTY
VM2 Rank
SciTegic.value.IntegerValue
56

@<SCITEGIC>MOL_PROPERTY
Conf_Id
SciTegic.value.IntegerValue
486

@<SCITEGIC>MOL_PROPERTY
Probability
SciTegic.value.DoubleValue
0.03

@<SCITEGIC>MOL_PROPERTY
Sum Probability
SciTegic.value.DoubleValue
99.72

@<SCITEGIC>MOL_PROPERTY
Delta G
SciTegic.value.DoubleValue
3.698

@<SCITEGIC>MOL_PROPERTY
G
SciTegic.value.DoubleValue
41.614

@<SCITEGIC>MOL_PROPERTY
E
SciTegic.value.DoubleValue
13.628

@<SCITEGIC>MOL_PROPERTY
-TS
SciTegic.value.DoubleValue
27.986

@<SCITEGIC>MOL_PROPERTY
U+W
SciTegic.value.DoubleValue
-5.151

@<SCITEGIC>MOL_PROPERTY
U
SciTegic.value.DoubleValue
50.626

@<SCITEGIC>MOL_PROPERTY
W
SciTegic.value.DoubleValue
-55.777

@<SCITEGIC>MOL_PROPERTY
W(PB)
SciTegic.value.DoubleValue
-57.841

@<SCITEGIC>MOL_PROPERTY
W(SA)
SciTegic.value.DoubleValue
2.064

@<SCITEGIC>MOL_PROPERTY
Valence
SciTegic.value.DoubleValue
4.837

@<SCITEGIC>MOL_PROPERTY
Coulomb
SciTegic.value.DoubleValue
45.097

@<SCITEGIC>MOL_PROPERTY
VdW
SciTegic.value.DoubleValue
0.692

@<SCITEGIC>MOL_PROPERTY
VdW6
SciTegic.value.DoubleValue
-6.655

@<SCITEGIC>MOL_PROPERTY
VdW12
SciTegic.value.DoubleValue
7.347

@<SCITEGIC>MOL_PROPERTY
Bond
SciTegic.value.DoubleValue
0.223

@<SCITEGIC>MOL_PROPERTY
Angle
SciTegic.value.DoubleValue
1.167

@<SCITEGIC>MOL_PROPERTY
Pdih
SciTegic.value.DoubleValue
3.447

@<SCITEGIC>MOL_PROPERTY
Idih
SciTegic.value.DoubleValue
0.000

@<SCITEGIC>MOL_PROPERTY
Tether
SciTegic.value.DoubleValue
0.000

@<TRIPOS>MOLECULE
guest-2_vm2.mol2 : vm2 ligand conformer 57
          23          22           1
SMALL
USER_CHARGES
 
@<TRIPOS>ATOM
       1    N1      20.442726   19.197971   25.574788 N.4        1 MOL1        -0.5940
       2    H1      21.396782   18.914783   25.329576 H          1 MOL1         0.3649
       3    H2      20.361085   19.122382   26.594371 H          1 MOL1         0.3649
       4    H3      20.351428   20.191000   25.339981 H          1 MOL1         0.3649
       5    C1      19.403356   18.354076   24.862982 C.3        1 MOL1         0.0207
       6    H4      18.414462   18.689263   25.187243 H          1 MOL1         0.0950
       7    H5      19.535919   17.318865   25.189060 H          1 MOL1         0.0950
       8    C2      19.495784   18.422101   23.326328 C.3        1 MOL1        -0.1415
       9    H6      20.490974   18.082151   23.013915 H          1 MOL1         0.0976
      10    H7      18.767745   17.718127   22.902026 H          1 MOL1         0.0976
      11    C3      19.220047   19.842320   22.776390 C.3        1 MOL1        -0.1375
      12    H8      20.020391   20.524622   23.092710 H          1 MOL1         0.0976
      13    H9      18.294104   20.224837   23.227946 H          1 MOL1         0.0976
      14    C4      19.072699   19.912939   21.234333 C.3        1 MOL1        -0.1375
      15    H10     18.210497   19.314935   20.908473 H          1 MOL1         0.0976
      16    H11     18.826444   20.951725   20.974027 H          1 MOL1         0.0976
      17    C5      20.340072   19.505249   20.439317 C.3        1 MOL1        -0.1350
      18    H12     21.244984   19.732446   21.019924 H          1 MOL1         0.0976
      19    H13     20.398849   20.125617   19.533971 H          1 MOL1         0.0976
      20    C6      20.341316   18.022342   19.999862 C.3        1 MOL1        -0.2365
      21    H14     21.244600   17.795299   19.418970 H          1 MOL1         0.0987
      22    H15     19.473584   17.801133   19.364929 H          1 MOL1         0.0987
      23    H16     20.316905   17.337847   20.854652 H          1 MOL1         0.0987
@<TRIPOS>BOND
    1     1     2    1
    2     1     3    1
    3     1     4    1
    4     1     5    1
    5     5     6    1
    6     5     7    1
    7     5     8    1
    8     8     9    1
    9     8    10    1
   10     8    11    1
   11    11    12    1
   12    11    13    1
   13    11    14    1
   14    14    15    1
   15    14    16    1
   16    14    17    1
   17    17    18    1
   18    17    19    1
   19    17    20    1
   20    20    21    1
   21    20    22    1
   22    20    23    1
@<TRIPOS>SUBSTRUCTURE
       1 MOL1            1 RESIDUE      1      MOL     
@<SCITEGIC>MOL_PROPERTY
VM2 Rank
SciTegic.value.IntegerValue
57

@<SCITEGIC>MOL_PROPERTY
Conf_Id
SciTegic.value.IntegerValue
571

@<SCITEGIC>MOL_PROPERTY
Probability
SciTegic.value.DoubleValue
0.03

@<SCITEGIC>MOL_PROPERTY
Sum Probability
SciTegic.value.DoubleValue
99.75

@<SCITEGIC>MOL_PROPERTY
Delta G
SciTegic.value.DoubleValue
3.707

@<SCITEGIC>MOL_PROPERTY
G
SciTegic.value.DoubleValue
41.623

@<SCITEGIC>MOL_PROPERTY
E
SciTegic.value.DoubleValue
13.669

@<SCITEGIC>MOL_PROPERTY
-TS
SciTegic.value.DoubleValue
27.954

@<SCITEGIC>MOL_PROPERTY
U+W
SciTegic.value.DoubleValue
-5.110

@<SCITEGIC>MOL_PROPERTY
U
SciTegic.value.DoubleValue
50.700

@<SCITEGIC>MOL_PROPERTY
W
SciTegic.value.DoubleValue
-55.810

@<SCITEGIC>MOL_PROPERTY
W(PB)
SciTegic.value.DoubleValue
-57.884

@<SCITEGIC>MOL_PROPERTY
W(SA)
SciTegic.value.DoubleValue
2.074

@<SCITEGIC>MOL_PROPERTY
Valence
SciTegic.value.DoubleValue
4.817

@<SCITEGIC>MOL_PROPERTY
Coulomb
SciTegic.value.DoubleValue
45.214

@<SCITEGIC>MOL_PROPERTY
VdW
SciTegic.value.DoubleValue
0.668

@<SCITEGIC>MOL_PROPERTY
VdW6
SciTegic.value.DoubleValue
-6.661

@<SCITEGIC>MOL_PROPERTY
VdW12
SciTegic.value.DoubleValue
7.329

@<SCITEGIC>MOL_PROPERTY
Bond
SciTegic.value.DoubleValue
0.218

@<SCITEGIC>MOL_PROPERTY
Angle
SciTegic.value.DoubleValue
1.219

@<SCITEGIC>MOL_PROPERTY
Pdih
SciTegic.value.DoubleValue
3.381

@<SCITEGIC>MOL_PROPERTY
Idih
SciTegic.value.DoubleValue
0.000

@<SCITEGIC>MOL_PROPERTY
Tether
SciTegic.value.DoubleValue
0.000

@<TRIPOS>MOLECULE
guest-2_vm2.mol2 : vm2 ligand conformer 58
          23          22           1
SMALL
USER_CHARGES
 
@<TRIPOS>ATOM
       1    N1      20.018544   18.746514   25.775821 N.4        1 MOL1        -0.5940
       2    H1      20.708305   19.487933   25.621135 H          1 MOL1         0.3649
       3    H2      20.517855   17.852773   25.725326 H          1 MOL1         0.3649
       4    H3      19.682328   18.846880   26.739582 H          1 MOL1         0.3649
       5    C1      18.882488   18.815091   24.773691 C.3        1 MOL1         0.0207
       6    H4      18.379107   19.778019   24.895334 H          1 MOL1         0.0950
       7    H5      18.170774   18.024683   25.027245 H          1 MOL1         0.0950
       8    C2      19.331554   18.645442   23.309179 C.3        1 MOL1        -0.1415
       9    H6      19.860916   17.690190   23.195520 H          1 MOL1         0.0976
      10    H7      18.430115   18.588209   22.686885 H          1 MOL1         0.0976
      11    C3      20.223026   19.811776   22.817500 C.3        1 MOL1        -0.1375
      12    H8      21.072279   19.936126   23.502071 H          1 MOL1         0.0976
      13    H9      19.653037   20.750033   22.864343 H          1 MOL1         0.0976
      14    C4      20.788859   19.624430   21.385789 C.3        1 MOL1        -0.1375
      15    H10     21.434605   20.487142   21.170787 H          1 MOL1         0.0976
      16    H11     21.448870   18.746648   21.352507 H          1 MOL1         0.0976
      17    C5      19.718530   19.533506   20.267499 C.3        1 MOL1        -0.1350
      18    H12     20.108030   20.032131   19.368813 H          1 MOL1         0.0976
      19    H13     18.816651   20.091714   20.554923 H          1 MOL1         0.0976
      20    C6      19.353000   18.080241   19.884520 C.3        1 MOL1        -0.2365
      21    H14     20.235886   17.536679   19.523816 H          1 MOL1         0.0987
      22    H15     18.605868   18.071509   19.080385 H          1 MOL1         0.0987
      23    H16     18.936672   17.522300   20.730387 H          1 MOL1         0.0987
@<TRIPOS>BOND
    1     1     2    1
    2     1     3    1
    3     1     4    1
    4     1     5    1
    5     5     6    1
    6     5     7    1
    7     5     8    1
    8     8     9    1
    9     8    10    1
   10     8    11    1
   11    11    12    1
   12    11    13    1
   13    11    14    1
   14    14    15    1
   15    14    16    1
   16    14    17    1
   17    17    18    1
   18    17    19    1
   19    17    20    1
   20    20    21    1
   21    20    22    1
   22    20    23    1
@<TRIPOS>SUBSTRUCTURE
       1 MOL1            1 RESIDUE      1      MOL     
@<SCITEGIC>MOL_PROPERTY
VM2 Rank
SciTegic.value.IntegerValue
58

@<SCITEGIC>MOL_PROPERTY
Conf_Id
SciTegic.value.IntegerValue
399

@<SCITEGIC>MOL_PROPERTY
Probability
SciTegic.value.DoubleValue
0.03

@<SCITEGIC>MOL_PROPERTY
Sum Probability
SciTegic.value.DoubleValue
99.77

@<SCITEGIC>MOL_PROPERTY
Delta G
SciTegic.value.DoubleValue
3.713

@<SCITEGIC>MOL_PROPERTY
G
SciTegic.value.DoubleValue
41.629

@<SCITEGIC>MOL_PROPERTY
E
SciTegic.value.DoubleValue
13.680

@<SCITEGIC>MOL_PROPERTY
-TS
SciTegic.value.DoubleValue
27.949

@<SCITEGIC>MOL_PROPERTY
U+W
SciTegic.value.DoubleValue
-5.099

@<SCITEGIC>MOL_PROPERTY
U
SciTegic.value.DoubleValue
50.701

@<SCITEGIC>MOL_PROPERTY
W
SciTegic.value.DoubleValue
-55.800

@<SCITEGIC>MOL_PROPERTY
W(PB)
SciTegic.value.DoubleValue
-57.867

@<SCITEGIC>MOL_PROPERTY
W(SA)
SciTegic.value.DoubleValue
2.067

@<SCITEGIC>MOL_PROPERTY
Valence
SciTegic.value.DoubleValue
4.880

@<SCITEGIC>MOL_PROPERTY
Coulomb
SciTegic.value.DoubleValue
45.095

@<SCITEGIC>MOL_PROPERTY
VdW
SciTegic.value.DoubleValue
0.726

@<SCITEGIC>MOL_PROPERTY
VdW6
SciTegic.value.DoubleValue
-6.620

@<SCITEGIC>MOL_PROPERTY
VdW12
SciTegic.value.DoubleValue
7.345

@<SCITEGIC>MOL_PROPERTY
Bond
SciTegic.value.DoubleValue
0.222

@<SCITEGIC>MOL_PROPERTY
Angle
SciTegic.value.DoubleValue
1.260

@<SCITEGIC>MOL_PROPERTY
Pdih
SciTegic.value.DoubleValue
3.398

@<SCITEGIC>MOL_PROPERTY
Idih
SciTegic.value.DoubleValue
0.000

@<SCITEGIC>MOL_PROPERTY
Tether
SciTegic.value.DoubleValue
0.000

@<TRIPOS>MOLECULE
guest-2_vm2.mol2 : vm2 ligand conformer 59
          23          22           1
SMALL
USER_CHARGES
 
@<TRIPOS>ATOM
       1    N1      20.827802   18.808612   25.241820 N.4        1 MOL1        -0.5940
       2    H1      21.363703   18.017446   24.871264 H          1 MOL1         0.3649
       3    H2      21.014675   18.850551   26.249427 H          1 MOL1         0.3649
       4    H3      21.219559   19.660455   24.829104 H          1 MOL1         0.3649
       5    C1      19.346099   18.672089   24.950121 C.3        1 MOL1         0.0207
       6    H4      18.832145   19.529274   25.393391 H          1 MOL1         0.0950
       7    H5      18.991920   17.766619   25.450365 H          1 MOL1         0.0950
       8    C2      19.014824   18.588539   23.447637 C.3        1 MOL1        -0.1415
       9    H6      19.535042   17.728791   23.010810 H          1 MOL1         0.0976
      10    H7      17.940934   18.385105   23.342358 H          1 MOL1         0.0976
      11    C3      19.362029   19.894274   22.687646 C.3        1 MOL1        -0.1375
      12    H8      20.428029   20.135751   22.791896 H          1 MOL1         0.0976
      13    H9      18.815195   20.720232   23.163452 H          1 MOL1         0.0976
      14    C4      18.978152   19.854431   21.185235 C.3        1 MOL1        -0.1375
      15    H10     18.103992   19.207007   21.031103 H          1 MOL1         0.0976
      16    H11     18.655312   20.861905   20.888188 H          1 MOL1         0.0976
      17    C5      20.126559   19.434305   20.232426 C.3        1 MOL1        -0.1350
      18    H12     20.955405   20.151139   20.315551 H          1 MOL1         0.0976
      19    H13     19.764344   19.507781   19.197431 H          1 MOL1         0.0976
      20    C6      20.660536   18.004750   20.469115 C.3        1 MOL1        -0.2365
      21    H14     21.370789   17.725484   19.680174 H          1 MOL1         0.0987
      22    H15     19.844756   17.270385   20.461734 H          1 MOL1         0.0987
      23    H16     21.190421   17.930851   21.426528 H          1 MOL1         0.0987
@<TRIPOS>BOND
    1     1     2    1
    2     1     3    1
    3     1     4    1
    4     1     5    1
    5     5     6    1
    6     5     7    1
    7     5     8    1
    8     8     9    1
    9     8    10    1
   10     8    11    1
   11    11    12    1
   12    11    13    1
   13    11    14    1
   14    14    15    1
   15    14    16    1
   16    14    17    1
   17    17    18    1
   18    17    19    1
   19    17    20    1
   20    20    21    1
   21    20    22    1
   22    20    23    1
@<TRIPOS>SUBSTRUCTURE
       1 MOL1            1 RESIDUE      1      MOL     
@<SCITEGIC>MOL_PROPERTY
VM2 Rank
SciTegic.value.IntegerValue
59

@<SCITEGIC>MOL_PROPERTY
Conf_Id
SciTegic.value.IntegerValue
511

@<SCITEGIC>MOL_PROPERTY
Probability
SciTegic.value.DoubleValue
0.02

@<SCITEGIC>MOL_PROPERTY
Sum Probability
SciTegic.value.DoubleValue
99.80

@<SCITEGIC>MOL_PROPERTY
Delta G
SciTegic.value.DoubleValue
3.762

@<SCITEGIC>MOL_PROPERTY
G
SciTegic.value.DoubleValue
41.678

@<SCITEGIC>MOL_PROPERTY
E
SciTegic.value.DoubleValue
13.724

@<SCITEGIC>MOL_PROPERTY
-TS
SciTegic.value.DoubleValue
27.953

@<SCITEGIC>MOL_PROPERTY
U+W
SciTegic.value.DoubleValue
-5.055

@<SCITEGIC>MOL_PROPERTY
U
SciTegic.value.DoubleValue
50.975

@<SCITEGIC>MOL_PROPERTY
W
SciTegic.value.DoubleValue
-56.030

@<SCITEGIC>MOL_PROPERTY
W(PB)
SciTegic.value.DoubleValue
-58.076

@<SCITEGIC>MOL_PROPERTY
W(SA)
SciTegic.value.DoubleValue
2.047

@<SCITEGIC>MOL_PROPERTY
Valence
SciTegic.value.DoubleValue
4.792

@<SCITEGIC>MOL_PROPERTY
Coulomb
SciTegic.value.DoubleValue
45.573

@<SCITEGIC>MOL_PROPERTY
VdW
SciTegic.value.DoubleValue
0.610

@<SCITEGIC>MOL_PROPERTY
VdW6
SciTegic.value.DoubleValue
-6.731

@<SCITEGIC>MOL_PROPERTY
VdW12
SciTegic.value.DoubleValue
7.341

@<SCITEGIC>MOL_PROPERTY
Bond
SciTegic.value.DoubleValue
0.224

@<SCITEGIC>MOL_PROPERTY
Angle
SciTegic.value.DoubleValue
1.226

@<SCITEGIC>MOL_PROPERTY
Pdih
SciTegic.value.DoubleValue
3.342

@<SCITEGIC>MOL_PROPERTY
Idih
SciTegic.value.DoubleValue
0.000

@<SCITEGIC>MOL_PROPERTY
Tether
SciTegic.value.DoubleValue
0.000

@<TRIPOS>MOLECULE
guest-2_vm2.mol2 : vm2 ligand conformer 60
          23          22           1
SMALL
USER_CHARGES
 
@<TRIPOS>ATOM
       1    N1      18.966387   18.034026   25.156873 N.4        1 MOL1        -0.5940
       2    H1      19.179318   17.108476   24.771566 H          1 MOL1         0.3649
       3    H2      18.120265   18.370776   24.687705 H          1 MOL1         0.3649
       4    H3      18.727334   17.898710   26.145051 H          1 MOL1         0.3649
       5    C1      20.125551   18.996416   24.985635 C.3        1 MOL1         0.0207
       6    H4      20.976492   18.592395   25.540819 H          1 MOL1         0.0950
       7    H5      19.844833   19.950638   25.439572 H          1 MOL1         0.0950
       8    C2      20.533797   19.220632   23.516880 C.3        1 MOL1        -0.1415
       9    H6      21.439688   19.840992   23.501888 H          1 MOL1         0.0976
      10    H7      20.811413   18.259948   23.068966 H          1 MOL1         0.0976
      11    C3      19.424475   19.920325   22.690492 C.3        1 MOL1        -0.1375
      12    H8      19.186526   20.874818   23.180338 H          1 MOL1         0.0976
      13    H9      18.497223   19.332483   22.703933 H          1 MOL1         0.0976
      14    C4      19.838631   20.212458   21.224436 C.3        1 MOL1        -0.1375
      15    H10     19.374864   21.161283   20.920925 H          1 MOL1         0.0976
      16    H11     20.922548   20.379737   21.159535 H          1 MOL1         0.0976
      17    C5      19.404016   19.133632   20.199529 C.3        1 MOL1        -0.1350
      18    H12     19.686492   19.475298   19.193903 H          1 MOL1         0.0976
      19    H13     18.308261   19.049695   20.194935 H          1 MOL1         0.0976
      20    C6      20.023142   17.739511   20.440155 C.3        1 MOL1        -0.2365
      21    H14     19.783563   17.065015   19.607969 H          1 MOL1         0.0987
      22    H15     19.629337   17.281329   21.355505 H          1 MOL1         0.0987
      23    H16     21.116269   17.799386   20.519736 H          1 MOL1         0.0987
@<TRIPOS>BOND
    1     1     2    1
    2     1     3    1
    3     1     4    1
    4     1     5    1
    5     5     6    1
    6     5     7    1
    7     5     8    1
    8     8     9    1
    9     8    10    1
   10     8    11    1
   11    11    12    1
   12    11    13    1
   13    11    14    1
   14    14    15    1
   15    14    16    1
   16    14    17    1
   17    17    18    1
   18    17    19    1
   19    17    20    1
   20    20    21    1
   21    20    22    1
   22    20    23    1
@<TRIPOS>SUBSTRUCTURE
       1 MOL1            1 RESIDUE      1      MOL     
@<SCITEGIC>MOL_PROPERTY
VM2 Rank
SciTegic.value.IntegerValue
60

@<SCITEGIC>MOL_PROPERTY
Conf_Id
SciTegic.value.IntegerValue
313

@<SCITEGIC>MOL_PROPERTY
Probability
SciTegic.value.DoubleValue
0.02

@<SCITEGIC>MOL_PROPERTY
Sum Probability
SciTegic.value.DoubleValue
99.82

@<SCITEGIC>MOL_PROPERTY
Delta G
SciTegic.value.DoubleValue
3.796

@<SCITEGIC>MOL_PROPERTY
G
SciTegic.value.DoubleValue
41.713

@<SCITEGIC>MOL_PROPERTY
E
SciTegic.value.DoubleValue
13.759

@<SCITEGIC>MOL_PROPERTY
-TS
SciTegic.value.DoubleValue
27.953

@<SCITEGIC>MOL_PROPERTY
U+W
SciTegic.value.DoubleValue
-5.020

@<SCITEGIC>MOL_PROPERTY
U
SciTegic.value.DoubleValue
50.975

@<SCITEGIC>MOL_PROPERTY
W
SciTegic.value.DoubleValue
-55.995

@<SCITEGIC>MOL_PROPERTY
W(PB)
SciTegic.value.DoubleValue
-58.046

@<SCITEGIC>MOL_PROPERTY
W(SA)
SciTegic.value.DoubleValue
2.051

@<SCITEGIC>MOL_PROPERTY
Valence
SciTegic.value.DoubleValue
4.792

@<SCITEGIC>MOL_PROPERTY
Coulomb
SciTegic.value.DoubleValue
45.573

@<SCITEGIC>MOL_PROPERTY
VdW
SciTegic.value.DoubleValue
0.610

@<SCITEGIC>MOL_PROPERTY
VdW6
SciTegic.value.DoubleValue
-6.731

@<SCITEGIC>MOL_PROPERTY
VdW12
SciTegic.value.DoubleValue
7.341

@<SCITEGIC>MOL_PROPERTY
Bond
SciTegic.value.DoubleValue
0.224

@<SCITEGIC>MOL_PROPERTY
Angle
SciTegic.value.DoubleValue
1.227

@<SCITEGIC>MOL_PROPERTY
Pdih
SciTegic.value.DoubleValue
3.342

@<SCITEGIC>MOL_PROPERTY
Idih
SciTegic.value.DoubleValue
0.000

@<SCITEGIC>MOL_PROPERTY
Tether
SciTegic.value.DoubleValue
0.000

@<TRIPOS>MOLECULE
guest-2_vm2.mol2 : vm2 ligand conformer 61
          23          22           1
SMALL
USER_CHARGES
 
@<TRIPOS>ATOM
       1    N1      19.536790   18.546317   25.753946 N.4        1 MOL1        -0.5940
       2    H1      19.822907   17.563892   25.693865 H          1 MOL1         0.3649
       3    H2      18.539697   18.586065   25.522370 H          1 MOL1         0.3649
       4    H3      19.626995   18.824185   26.737105 H          1 MOL1         0.3649
       5    C1      20.363488   19.431176   24.841157 C.3        1 MOL1         0.0207
       6    H4      21.403004   19.369236   25.174534 H          1 MOL1         0.0950
       7    H5      20.025723   20.463009   24.970222 H          1 MOL1         0.0950
       8    C2      20.281948   19.040648   23.352508 C.3        1 MOL1        -0.1415
       9    H6      21.003494   19.658497   22.804102 H          1 MOL1         0.0976
      10    H7      20.595485   17.995602   23.229114 H          1 MOL1         0.0976
      11    C3      18.868549   19.248130   22.755801 C.3        1 MOL1        -0.1375
      12    H8      18.600649   20.312061   22.816529 H          1 MOL1         0.0976
      13    H9      18.131329   18.712371   23.368010 H          1 MOL1         0.0976
      14    C4      18.715099   18.761704   21.291253 C.3        1 MOL1        -0.1375
      15    H10     18.875911   17.676251   21.235101 H          1 MOL1         0.0976
      16    H11     17.667697   18.920062   20.999087 H          1 MOL1         0.0976
      17    C5      19.617512   19.491590   20.262974 C.3        1 MOL1        -0.1350
      18    H12     19.833192   20.514553   20.601538 H          1 MOL1         0.0976
      19    H13     19.060741   19.596852   19.321220 H          1 MOL1         0.0976
      20    C6      20.932614   18.737434   19.956360 C.3        1 MOL1        -0.2365
      21    H14     21.554227   18.610911   20.849506 H          1 MOL1         0.0987
      22    H15     21.525692   19.286351   19.213485 H          1 MOL1         0.0987
      23    H16     20.725567   17.740680   19.545664 H          1 MOL1         0.0987
@<TRIPOS>BOND
    1     1     2    1
    2     1     3    1
    3     1     4    1
    4     1     5    1
    5     5     6    1
    6     5     7    1
    7     5     8    1
    8     8     9    1
    9     8    10    1
   10     8    11    1
   11    11    12    1
   12    11    13    1
   13    11    14    1
   14    14    15    1
   15    14    16    1
   16    14    17    1
   17    17    18    1
   18    17    19    1
   19    17    20    1
   20    20    21    1
   21    20    22    1
   22    20    23    1
@<TRIPOS>SUBSTRUCTURE
       1 MOL1            1 RESIDUE      1      MOL     
@<SCITEGIC>MOL_PROPERTY
VM2 Rank
SciTegic.value.IntegerValue
61

@<SCITEGIC>MOL_PROPERTY
Conf_Id
SciTegic.value.IntegerValue
412

@<SCITEGIC>MOL_PROPERTY
Probability
SciTegic.value.DoubleValue
0.02

@<SCITEGIC>MOL_PROPERTY
Sum Probability
SciTegic.value.DoubleValue
99.84

@<SCITEGIC>MOL_PROPERTY
Delta G
SciTegic.value.DoubleValue
3.803

@<SCITEGIC>MOL_PROPERTY
G
SciTegic.value.DoubleValue
41.719

@<SCITEGIC>MOL_PROPERTY
E
SciTegic.value.DoubleValue
13.770

@<SCITEGIC>MOL_PROPERTY
-TS
SciTegic.value.DoubleValue
27.949

@<SCITEGIC>MOL_PROPERTY
U+W
SciTegic.value.DoubleValue
-5.009

@<SCITEGIC>MOL_PROPERTY
U
SciTegic.value.DoubleValue
50.701

@<SCITEGIC>MOL_PROPERTY
W
SciTegic.value.DoubleValue
-55.709

@<SCITEGIC>MOL_PROPERTY
W(PB)
SciTegic.value.DoubleValue
-57.768

@<SCITEGIC>MOL_PROPERTY
W(SA)
SciTegic.value.DoubleValue
2.058

@<SCITEGIC>MOL_PROPERTY
Valence
SciTegic.value.DoubleValue
4.881

@<SCITEGIC>MOL_PROPERTY
Coulomb
SciTegic.value.DoubleValue
45.095

@<SCITEGIC>MOL_PROPERTY
VdW
SciTegic.value.DoubleValue
0.726

@<SCITEGIC>MOL_PROPERTY
VdW6
SciTegic.value.DoubleValue
-6.620

@<SCITEGIC>MOL_PROPERTY
VdW12
SciTegic.value.DoubleValue
7.345

@<SCITEGIC>MOL_PROPERTY
Bond
SciTegic.value.DoubleValue
0.222

@<SCITEGIC>MOL_PROPERTY
Angle
SciTegic.value.DoubleValue
1.260

@<SCITEGIC>MOL_PROPERTY
Pdih
SciTegic.value.DoubleValue
3.398

@<SCITEGIC>MOL_PROPERTY
Idih
SciTegic.value.DoubleValue
0.000

@<SCITEGIC>MOL_PROPERTY
Tether
SciTegic.value.DoubleValue
0.000

@<TRIPOS>MOLECULE
guest-2_vm2.mol2 : vm2 ligand conformer 62
          23          22           1
SMALL
USER_CHARGES
 
@<TRIPOS>ATOM
       1    N1      20.989783   18.914270   24.756646 N.4        1 MOL1        -0.5940
       2    H1      21.721549   18.239843   25.004648 H          1 MOL1         0.3649
       3    H2      20.862944   19.528805   25.567146 H          1 MOL1         0.3649
       4    H3      21.354990   19.491246   23.993223 H          1 MOL1         0.3649
       5    C1      19.696510   18.225410   24.367126 C.3        1 MOL1         0.0207
       6    H4      19.378968   17.613490   25.215789 H          1 MOL1         0.0950
       7    H5      19.900321   17.554915   23.529437 H          1 MOL1         0.0950
       8    C2      18.564289   19.201088   23.992963 C.3        1 MOL1        -0.1415
       9    H6      17.658308   18.620381   23.774524 H          1 MOL1         0.0976
      10    H7      18.324782   19.812441   24.873138 H          1 MOL1         0.0976
      11    C3      18.868785   20.141676   22.796297 C.3        1 MOL1        -0.1375
      12    H8      19.735327   20.780023   23.014078 H          1 MOL1         0.0976
      13    H9      18.017718   20.830138   22.700461 H          1 MOL1         0.0976
      14    C4      19.052811   19.426015   21.432153 C.3        1 MOL1        -0.1375
      15    H10     18.371702   18.566738   21.362486 H          1 MOL1         0.0976
      16    H11     18.743877   20.121175   20.639124 H          1 MOL1         0.0976
      17    C5      20.506820   18.983519   21.138488 C.3        1 MOL1        -0.1350
      18    H12     20.847548   18.249615   21.877226 H          1 MOL1         0.0976
      19    H13     21.180027   19.848593   21.215662 H          1 MOL1         0.0976
      20    C6      20.637002   18.365021   19.730327 C.3        1 MOL1        -0.2365
      21    H14     21.672854   18.057969   19.535972 H          1 MOL1         0.0987
      22    H15     20.348326   19.085248   18.953694 H          1 MOL1         0.0987
      23    H16     19.998102   17.478074   19.628529 H          1 MOL1         0.0987
@<TRIPOS>BOND
    1     1     2    1
    2     1     3    1
    3     1     4    1
    4     1     5    1
    5     5     6    1
    6     5     7    1
    7     5     8    1
    8     8     9    1
    9     8    10    1
   10     8    11    1
   11    11    12    1
   12    11    13    1
   13    11    14    1
   14    14    15    1
   15    14    16    1
   16    14    17    1
   17    17    18    1
   18    17    19    1
   19    17    20    1
   20    20    21    1
   21    20    22    1
   22    20    23    1
@<TRIPOS>SUBSTRUCTURE
       1 MOL1            1 RESIDUE      1      MOL     
@<SCITEGIC>MOL_PROPERTY
VM2 Rank
SciTegic.value.IntegerValue
62

@<SCITEGIC>MOL_PROPERTY
Conf_Id
SciTegic.value.IntegerValue
564

@<SCITEGIC>MOL_PROPERTY
Probability
SciTegic.value.DoubleValue
0.02

@<SCITEGIC>MOL_PROPERTY
Sum Probability
SciTegic.value.DoubleValue
99.86

@<SCITEGIC>MOL_PROPERTY
Delta G
SciTegic.value.DoubleValue
3.858

@<SCITEGIC>MOL_PROPERTY
G
SciTegic.value.DoubleValue
41.774

@<SCITEGIC>MOL_PROPERTY
E
SciTegic.value.DoubleValue
13.754

@<SCITEGIC>MOL_PROPERTY
-TS
SciTegic.value.DoubleValue
28.020

@<SCITEGIC>MOL_PROPERTY
U+W
SciTegic.value.DoubleValue
-5.025

@<SCITEGIC>MOL_PROPERTY
U
SciTegic.value.DoubleValue
51.112

@<SCITEGIC>MOL_PROPERTY
W
SciTegic.value.DoubleValue
-56.136

@<SCITEGIC>MOL_PROPERTY
W(PB)
SciTegic.value.DoubleValue
-58.231

@<SCITEGIC>MOL_PROPERTY
W(SA)
SciTegic.value.DoubleValue
2.094

@<SCITEGIC>MOL_PROPERTY
Valence
SciTegic.value.DoubleValue
4.455

@<SCITEGIC>MOL_PROPERTY
Coulomb
SciTegic.value.DoubleValue
46.320

@<SCITEGIC>MOL_PROPERTY
VdW
SciTegic.value.DoubleValue
0.337

@<SCITEGIC>MOL_PROPERTY
VdW6
SciTegic.value.DoubleValue
-7.022

@<SCITEGIC>MOL_PROPERTY
VdW12
SciTegic.value.DoubleValue
7.359

@<SCITEGIC>MOL_PROPERTY
Bond
SciTegic.value.DoubleValue
0.222

@<SCITEGIC>MOL_PROPERTY
Angle
SciTegic.value.DoubleValue
1.454

@<SCITEGIC>MOL_PROPERTY
Pdih
SciTegic.value.DoubleValue
2.779

@<SCITEGIC>MOL_PROPERTY
Idih
SciTegic.value.DoubleValue
0.000

@<SCITEGIC>MOL_PROPERTY
Tether
SciTegic.value.DoubleValue
0.000

@<TRIPOS>MOLECULE
guest-2_vm2.mol2 : vm2 ligand conformer 63
          23          22           1
SMALL
USER_CHARGES
 
@<TRIPOS>ATOM
       1    N1      20.302570   18.196857   25.653966 N.4        1 MOL1        -0.5940
       2    H1      20.719102   17.338218   25.279852 H          1 MOL1         0.3649
       3    H2      19.449840   17.925566   26.154017 H          1 MOL1         0.3649
       4    H3      20.954957   18.563761   26.355228 H          1 MOL1         0.3649
       5    C1      20.020163   19.210237   24.563465 C.3        1 MOL1         0.0207
       6    H4      20.972799   19.474802   24.097999 H          1 MOL1         0.0950
       7    H5      19.607173   20.106241   25.034628 H          1 MOL1         0.0950
       8    C2      19.040709   18.689209   23.494445 C.3        1 MOL1        -0.1415
       9    H6      19.450975   17.784062   23.033284 H          1 MOL1         0.0976
      10    H7      18.106363   18.389593   23.987387 H          1 MOL1         0.0976
      11    C3      18.713466   19.753298   22.416047 C.3        1 MOL1        -0.1375
      12    H8      18.331303   20.648283   22.926537 H          1 MOL1         0.0976
      13    H9      17.887363   19.398459   21.784617 H          1 MOL1         0.0976
      14    C4      19.913655   20.166874   21.520715 C.3        1 MOL1        -0.1375
      15    H10     19.792501   21.227563   21.260583 H          1 MOL1         0.0976
      16    H11     20.857599   20.108490   22.077462 H          1 MOL1         0.0976
      17    C5      20.036046   19.376573   20.192825 C.3        1 MOL1        -0.1350
      18    H12     20.863174   19.804311   19.609102 H          1 MOL1         0.0976
      19    H13     19.129849   19.525601   19.589208 H          1 MOL1         0.0976
      20    C6      20.289391   17.863952   20.372539 C.3        1 MOL1        -0.2365
      21    H14     21.143351   17.680802   21.037444 H          1 MOL1         0.0987
      22    H15     20.510308   17.394887   19.405038 H          1 MOL1         0.0987
      23    H16     19.407921   17.359005   20.785928 H          1 MOL1         0.0987
@<TRIPOS>BOND
    1     1     2    1
    2     1     3    1
    3     1     4    1
    4     1     5    1
    5     5     6    1
    6     5     7    1
    7     5     8    1
    8     8     9    1
    9     8    10    1
   10     8    11    1
   11    11    12    1
   12    11    13    1
   13    11    14    1
   14    14    15    1
   15    14    16    1
   16    14    17    1
   17    17    18    1
   18    17    19    1
   19    17    20    1
   20    20    21    1
   21    20    22    1
   22    20    23    1
@<TRIPOS>SUBSTRUCTURE
       1 MOL1            1 RESIDUE      1      MOL     
@<SCITEGIC>MOL_PROPERTY
VM2 Rank
SciTegic.value.IntegerValue
63

@<SCITEGIC>MOL_PROPERTY
Conf_Id
SciTegic.value.IntegerValue
682

@<SCITEGIC>MOL_PROPERTY
Probability
SciTegic.value.DoubleValue
0.02

@<SCITEGIC>MOL_PROPERTY
Sum Probability
SciTegic.value.DoubleValue
99.88

@<SCITEGIC>MOL_PROPERTY
Delta G
SciTegic.value.DoubleValue
3.870

@<SCITEGIC>MOL_PROPERTY
G
SciTegic.value.DoubleValue
41.786

@<SCITEGIC>MOL_PROPERTY
E
SciTegic.value.DoubleValue
13.891

@<SCITEGIC>MOL_PROPERTY
-TS
SciTegic.value.DoubleValue
27.895

@<SCITEGIC>MOL_PROPERTY
U+W
SciTegic.value.DoubleValue
-4.888

@<SCITEGIC>MOL_PROPERTY
U
SciTegic.value.DoubleValue
51.036

@<SCITEGIC>MOL_PROPERTY
W
SciTegic.value.DoubleValue
-55.924

@<SCITEGIC>MOL_PROPERTY
W(PB)
SciTegic.value.DoubleValue
-57.987

@<SCITEGIC>MOL_PROPERTY
W(SA)
SciTegic.value.DoubleValue
2.063

@<SCITEGIC>MOL_PROPERTY
Valence
SciTegic.value.DoubleValue
5.117

@<SCITEGIC>MOL_PROPERTY
Coulomb
SciTegic.value.DoubleValue
45.321

@<SCITEGIC>MOL_PROPERTY
VdW
SciTegic.value.DoubleValue
0.598

@<SCITEGIC>MOL_PROPERTY
VdW6
SciTegic.value.DoubleValue
-6.707

@<SCITEGIC>MOL_PROPERTY
VdW12
SciTegic.value.DoubleValue
7.304

@<SCITEGIC>MOL_PROPERTY
Bond
SciTegic.value.DoubleValue
0.233

@<SCITEGIC>MOL_PROPERTY
Angle
SciTegic.value.DoubleValue
1.409

@<SCITEGIC>MOL_PROPERTY
Pdih
SciTegic.value.DoubleValue
3.475

@<SCITEGIC>MOL_PROPERTY
Idih
SciTegic.value.DoubleValue
0.000

@<SCITEGIC>MOL_PROPERTY
Tether
SciTegic.value.DoubleValue
0.000

@<TRIPOS>MOLECULE
guest-2_vm2.mol2 : vm2 ligand conformer 64
          23          22           1
SMALL
USER_CHARGES
 
@<TRIPOS>ATOM
       1    N1      19.736284   17.961147   25.628083 N.4        1 MOL1        -0.5940
       2    H1      20.080921   17.072638   25.250595 H          1 MOL1         0.3649
       3    H2      18.964254   17.735327   26.264454 H          1 MOL1         0.3649
       4    H3      20.488130   18.357399   26.201243 H          1 MOL1         0.3649
       5    C1      19.301449   18.911227   24.530743 C.3        1 MOL1         0.0207
       6    H4      18.920378   19.820462   25.003452 H          1 MOL1         0.0950
       7    H5      18.481547   18.438381   23.984529 H          1 MOL1         0.0950
       8    C2      20.440668   19.271762   23.558225 C.3        1 MOL1        -0.1415
       9    H6      21.270387   19.706119   24.131516 H          1 MOL1         0.0976
      10    H7      20.829395   18.357662   23.096071 H          1 MOL1         0.0976
      11    C3      20.000446   20.288858   22.474693 C.3        1 MOL1        -0.1375
      12    H8      20.880456   20.643952   21.921024 H          1 MOL1         0.0976
      13    H9      19.595282   21.174267   22.984142 H          1 MOL1         0.0976
      14    C4      18.934738   19.759568   21.476079 C.3        1 MOL1        -0.1375
      15    H10     18.270402   19.032017   21.959539 H          1 MOL1         0.0976
      16    H11     18.288859   20.601912   21.191983 H          1 MOL1         0.0976
      17    C5      19.511497   19.158264   20.168933 C.3        1 MOL1        -0.1350
      18    H12     20.088751   19.924552   19.632895 H          1 MOL1         0.0976
      19    H13     18.673404   18.893038   19.509321 H          1 MOL1         0.0976
      20    C6      20.390919   17.906174   20.377245 C.3        1 MOL1        -0.2365
      21    H14     19.869739   17.150831   20.979507 H          1 MOL1         0.0987
      22    H15     21.335039   18.160913   20.873830 H          1 MOL1         0.0987
      23    H16     20.643098   17.450068   19.411193 H          1 MOL1         0.0987
@<TRIPOS>BOND
    1     1     2    1
    2     1     3    1
    3     1     4    1
    4     1     5    1
    5     5     6    1
    6     5     7    1
    7     5     8    1
    8     8     9    1
    9     8    10    1
   10     8    11    1
   11    11    12    1
   12    11    13    1
   13    11    14    1
   14    14    15    1
   15    14    16    1
   16    14    17    1
   17    17    18    1
   18    17    19    1
   19    17    20    1
   20    20    21    1
   21    20    22    1
   22    20    23    1
@<TRIPOS>SUBSTRUCTURE
       1 MOL1            1 RESIDUE      1      MOL     
@<SCITEGIC>MOL_PROPERTY
VM2 Rank
SciTegic.value.IntegerValue
64

@<SCITEGIC>MOL_PROPERTY
Conf_Id
SciTegic.value.IntegerValue
183

@<SCITEGIC>MOL_PROPERTY
Probability
SciTegic.value.DoubleValue
0.02

@<SCITEGIC>MOL_PROPERTY
Sum Probability
SciTegic.value.DoubleValue
99.90

@<SCITEGIC>MOL_PROPERTY
Delta G
SciTegic.value.DoubleValue
3.878

@<SCITEGIC>MOL_PROPERTY
G
SciTegic.value.DoubleValue
41.794

@<SCITEGIC>MOL_PROPERTY
E
SciTegic.value.DoubleValue
13.899

@<SCITEGIC>MOL_PROPERTY
-TS
SciTegic.value.DoubleValue
27.895

@<SCITEGIC>MOL_PROPERTY
U+W
SciTegic.value.DoubleValue
-4.880

@<SCITEGIC>MOL_PROPERTY
U
SciTegic.value.DoubleValue
51.036

@<SCITEGIC>MOL_PROPERTY
W
SciTegic.value.DoubleValue
-55.916

@<SCITEGIC>MOL_PROPERTY
W(PB)
SciTegic.value.DoubleValue
-57.975

@<SCITEGIC>MOL_PROPERTY
W(SA)
SciTegic.value.DoubleValue
2.059

@<SCITEGIC>MOL_PROPERTY
Valence
SciTegic.value.DoubleValue
5.117

@<SCITEGIC>MOL_PROPERTY
Coulomb
SciTegic.value.DoubleValue
45.321

@<SCITEGIC>MOL_PROPERTY
VdW
SciTegic.value.DoubleValue
0.598

@<SCITEGIC>MOL_PROPERTY
VdW6
SciTegic.value.DoubleValue
-6.707

@<SCITEGIC>MOL_PROPERTY
VdW12
SciTegic.value.DoubleValue
7.305

@<SCITEGIC>MOL_PROPERTY
Bond
SciTegic.value.DoubleValue
0.233

@<SCITEGIC>MOL_PROPERTY
Angle
SciTegic.value.DoubleValue
1.409

@<SCITEGIC>MOL_PROPERTY
Pdih
SciTegic.value.DoubleValue
3.475

@<SCITEGIC>MOL_PROPERTY
Idih
SciTegic.value.DoubleValue
0.000

@<SCITEGIC>MOL_PROPERTY
Tether
SciTegic.value.DoubleValue
0.000

@<TRIPOS>MOLECULE
guest-2_vm2.mol2 : vm2 ligand conformer 65
          23          22           1
SMALL
USER_CHARGES
 
@<TRIPOS>ATOM
       1    N1      18.816508   18.008724   24.657447 N.4        1 MOL1        -0.5940
       2    H1      18.406917   18.505422   25.455054 H          1 MOL1         0.3649
       3    H2      18.762247   17.006771   24.869550 H          1 MOL1         0.3649
       4    H3      18.210762   18.181142   23.849712 H          1 MOL1         0.3649
       5    C1      20.241751   18.452609   24.392002 C.3        1 MOL1         0.0207
       6    H4      20.639169   17.862731   23.563192 H          1 MOL1         0.0950
       7    H5      20.832223   18.219096   25.282127 H          1 MOL1         0.0950
       8    C2      20.373052   19.954739   24.075398 C.3        1 MOL1        -0.1415
       9    H6      20.039446   20.526883   24.951290 H          1 MOL1         0.0976
      10    H7      21.436809   20.194729   23.946705 H          1 MOL1         0.0976
      11    C3      19.585622   20.440392   22.828988 C.3        1 MOL1        -0.1375
      12    H8      19.701809   21.531860   22.777243 H          1 MOL1         0.0976
      13    H9      18.508712   20.269003   22.958230 H          1 MOL1         0.0976
      14    C4      20.069549   19.849741   21.478477 C.3        1 MOL1        -0.1375
      15    H10     19.854656   20.584119   20.689749 H          1 MOL1         0.0976
      16    H11     21.161581   19.729477   21.489479 H          1 MOL1         0.0976
      17    C5      19.386712   18.516661   21.087542 C.3        1 MOL1        -0.1350
      18    H12     18.295526   18.646347   21.084536 H          1 MOL1         0.0976
      19    H13     19.611066   17.734167   21.820895 H          1 MOL1         0.0976
      20    C6      19.842807   18.034135   19.694145 C.3        1 MOL1        -0.2365
      21    H14     19.349442   17.089688   19.430229 H          1 MOL1         0.0987
      22    H15     20.927363   17.865566   19.670633 H          1 MOL1         0.0987
      23    H16     19.594533   18.771267   18.919409 H          1 MOL1         0.0987
@<TRIPOS>BOND
    1     1     2    1
    2     1     3    1
    3     1     4    1
    4     1     5    1
    5     5     6    1
    6     5     7    1
    7     5     8    1
    8     8     9    1
    9     8    10    1
   10     8    11    1
   11    11    12    1
   12    11    13    1
   13    11    14    1
   14    14    15    1
   15    14    16    1
   16    14    17    1
   17    17    18    1
   18    17    19    1
   19    17    20    1
   20    20    21    1
   21    20    22    1
   22    20    23    1
@<TRIPOS>SUBSTRUCTURE
       1 MOL1            1 RESIDUE      1      MOL     
@<SCITEGIC>MOL_PROPERTY
VM2 Rank
SciTegic.value.IntegerValue
65

@<SCITEGIC>MOL_PROPERTY
Conf_Id
SciTegic.value.IntegerValue
560

@<SCITEGIC>MOL_PROPERTY
Probability
SciTegic.value.DoubleValue
0.02

@<SCITEGIC>MOL_PROPERTY
Sum Probability
SciTegic.value.DoubleValue
99.92

@<SCITEGIC>MOL_PROPERTY
Delta G
SciTegic.value.DoubleValue
3.925

@<SCITEGIC>MOL_PROPERTY
G
SciTegic.value.DoubleValue
41.841

@<SCITEGIC>MOL_PROPERTY
E
SciTegic.value.DoubleValue
13.822

@<SCITEGIC>MOL_PROPERTY
-TS
SciTegic.value.DoubleValue
28.020

@<SCITEGIC>MOL_PROPERTY
U+W
SciTegic.value.DoubleValue
-4.958

@<SCITEGIC>MOL_PROPERTY
U
SciTegic.value.DoubleValue
51.112

@<SCITEGIC>MOL_PROPERTY
W
SciTegic.value.DoubleValue
-56.069

@<SCITEGIC>MOL_PROPERTY
W(PB)
SciTegic.value.DoubleValue
-58.128

@<SCITEGIC>MOL_PROPERTY
W(SA)
SciTegic.value.DoubleValue
2.058

@<SCITEGIC>MOL_PROPERTY
Valence
SciTegic.value.DoubleValue
4.455

@<SCITEGIC>MOL_PROPERTY
Coulomb
SciTegic.value.DoubleValue
46.320

@<SCITEGIC>MOL_PROPERTY
VdW
SciTegic.value.DoubleValue
0.337

@<SCITEGIC>MOL_PROPERTY
VdW6
SciTegic.value.DoubleValue
-7.022

@<SCITEGIC>MOL_PROPERTY
VdW12
SciTegic.value.DoubleValue
7.359

@<SCITEGIC>MOL_PROPERTY
Bond
SciTegic.value.DoubleValue
0.222

@<SCITEGIC>MOL_PROPERTY
Angle
SciTegic.value.DoubleValue
1.455

@<SCITEGIC>MOL_PROPERTY
Pdih
SciTegic.value.DoubleValue
2.778

@<SCITEGIC>MOL_PROPERTY
Idih
SciTegic.value.DoubleValue
0.000

@<SCITEGIC>MOL_PROPERTY
Tether
SciTegic.value.DoubleValue
0.000

@<TRIPOS>MOLECULE
guest-2_vm2.mol2 : vm2 ligand conformer 66
          23          22           1
SMALL
USER_CHARGES
 
@<TRIPOS>ATOM
       1    N1      20.056105   17.778556   25.251242 N.4        1 MOL1        -0.5940
       2    H1      19.458233   17.031048   25.619611 H          1 MOL1         0.3649
       3    H2      20.340039   18.353461   26.051015 H          1 MOL1         0.3649
       4    H3      20.902691   17.331007   24.885980 H          1 MOL1         0.3649
       5    C1      19.345752   18.596758   24.192194 C.3        1 MOL1         0.0207
       6    H4      18.443049   19.019923   24.640968 H          1 MOL1         0.0950
       7    H5      19.044750   17.918955   23.389250 H          1 MOL1         0.0950
       8    C2      20.217570   19.729039   23.617491 C.3        1 MOL1        -0.1415
       9    H6      20.532555   20.387760   24.437631 H          1 MOL1         0.0976
      10    H7      21.138847   19.317566   23.187663 H          1 MOL1         0.0976
      11    C3      19.473357   20.576255   22.558048 C.3        1 MOL1        -0.1375
      12    H8      20.143922   21.371289   22.203869 H          1 MOL1         0.0976
      13    H9      18.634630   21.090006   23.048015 H          1 MOL1         0.0976
      14    C4      18.922996   19.794858   21.334170 C.3        1 MOL1        -0.1375
      15    H10     18.174946   19.055075   21.649197 H          1 MOL1         0.0976
      16    H11     18.373417   20.514274   20.711377 H          1 MOL1         0.0976
      17    C5      20.002617   19.126518   20.443655 C.3        1 MOL1        -0.1350
      18    H12     20.929240   19.717001   20.458350 H          1 MOL1         0.0976
      19    H13     19.650935   19.143899   19.402506 H          1 MOL1         0.0976
      20    C6      20.297603   17.655017   20.817200 C.3        1 MOL1        -0.2365
      21    H14     20.732477   17.561173   21.817470 H          1 MOL1         0.0987
      22    H15     21.010820   17.216577   20.107285 H          1 MOL1         0.0987
      23    H16     19.382517   17.049635   20.784858 H          1 MOL1         0.0987
@<TRIPOS>BOND
    1     1     2    1
    2     1     3    1
    3     1     4    1
    4     1     5    1
    5     5     6    1
    6     5     7    1
    7     5     8    1
    8     8     9    1
    9     8    10    1
   10     8    11    1
   11    11    12    1
   12    11    13    1
   13    11    14    1
   14    14    15    1
   15    14    16    1
   16    14    17    1
   17    17    18    1
   18    17    19    1
   19    17    20    1
   20    20    21    1
   21    20    22    1
   22    20    23    1
@<TRIPOS>SUBSTRUCTURE
       1 MOL1            1 RESIDUE      1      MOL     
@<SCITEGIC>MOL_PROPERTY
VM2 Rank
SciTegic.value.IntegerValue
66

@<SCITEGIC>MOL_PROPERTY
Conf_Id
SciTegic.value.IntegerValue
186

@<SCITEGIC>MOL_PROPERTY
Probability
SciTegic.value.DoubleValue
0.02

@<SCITEGIC>MOL_PROPERTY
Sum Probability
SciTegic.value.DoubleValue
99.93

@<SCITEGIC>MOL_PROPERTY
Delta G
SciTegic.value.DoubleValue
3.977

@<SCITEGIC>MOL_PROPERTY
G
SciTegic.value.DoubleValue
41.894

@<SCITEGIC>MOL_PROPERTY
E
SciTegic.value.DoubleValue
13.665

@<SCITEGIC>MOL_PROPERTY
-TS
SciTegic.value.DoubleValue
28.229

@<SCITEGIC>MOL_PROPERTY
U+W
SciTegic.value.DoubleValue
-5.114

@<SCITEGIC>MOL_PROPERTY
U
SciTegic.value.DoubleValue
51.053

@<SCITEGIC>MOL_PROPERTY
W
SciTegic.value.DoubleValue
-56.167

@<SCITEGIC>MOL_PROPERTY
W(PB)
SciTegic.value.DoubleValue
-58.204

@<SCITEGIC>MOL_PROPERTY
W(SA)
SciTegic.value.DoubleValue
2.037

@<SCITEGIC>MOL_PROPERTY
Valence
SciTegic.value.DoubleValue
5.021

@<SCITEGIC>MOL_PROPERTY
Coulomb
SciTegic.value.DoubleValue
45.788

@<SCITEGIC>MOL_PROPERTY
VdW
SciTegic.value.DoubleValue
0.245

@<SCITEGIC>MOL_PROPERTY
VdW6
SciTegic.value.DoubleValue
-7.353

@<SCITEGIC>MOL_PROPERTY
VdW12
SciTegic.value.DoubleValue
7.597

@<SCITEGIC>MOL_PROPERTY
Bond
SciTegic.value.DoubleValue
0.229

@<SCITEGIC>MOL_PROPERTY
Angle
SciTegic.value.DoubleValue
1.631

@<SCITEGIC>MOL_PROPERTY
Pdih
SciTegic.value.DoubleValue
3.161

@<SCITEGIC>MOL_PROPERTY
Idih
SciTegic.value.DoubleValue
0.000

@<SCITEGIC>MOL_PROPERTY
Tether
SciTegic.value.DoubleValue
0.000

@<TRIPOS>MOLECULE
guest-2_vm2.mol2 : vm2 ligand conformer 67
          23          22           1
SMALL
USER_CHARGES
 
@<TRIPOS>ATOM
       1    N1      20.236777   17.853809   25.259536 N.4        1 MOL1        -0.5940
       2    H1      19.568534   18.032608   26.016011 H          1 MOL1         0.3649
       3    H2      21.157202   17.737992   25.696938 H          1 MOL1         0.3649
       4    H3      19.987706   16.950410   24.844502 H          1 MOL1         0.3649
       5    C1      20.237983   18.968002   24.232790 C.3        1 MOL1         0.0207
       6    H4      20.991430   18.728897   23.477883 H          1 MOL1         0.0950
       7    H5      20.537070   19.891290   24.736201 H          1 MOL1         0.0950
       8    C2      18.868862   19.167730   23.556014 C.3        1 MOL1        -0.1415
       9    H6      18.547078   18.238964   23.069534 H          1 MOL1         0.0976
      10    H7      18.117740   19.382769   24.327592 H          1 MOL1         0.0976
      11    C3      18.873260   20.326506   22.530702 C.3        1 MOL1        -0.1375
      12    H8      19.059951   21.267012   23.067422 H          1 MOL1         0.0976
      13    H9      17.867130   20.423739   22.100089 H          1 MOL1         0.0976
      14    C4      19.907809   20.204712   21.379081 C.3        1 MOL1        -0.1375
      15    H10     19.832289   21.121428   20.777916 H          1 MOL1         0.0976
      16    H11     20.932216   20.202564   21.774916 H          1 MOL1         0.0976
      17    C5      19.692612   18.997528   20.429515 C.3        1 MOL1        -0.1350
      18    H12     20.007901   19.292470   19.418785 H          1 MOL1         0.0976
      19    H13     18.623042   18.757300   20.353172 H          1 MOL1         0.0976
      20    C6      20.498697   17.738712   20.826362 C.3        1 MOL1        -0.2365
      21    H14     20.182400   17.332284   21.792402 H          1 MOL1         0.0987
      22    H15     21.572102   17.960802   20.884631 H          1 MOL1         0.0987
      23    H16     20.363715   16.947306   20.077800 H          1 MOL1         0.0987
@<TRIPOS>BOND
    1     1     2    1
    2     1     3    1
    3     1     4    1
    4     1     5    1
    5     5     6    1
    6     5     7    1
    7     5     8    1
    8     8     9    1
    9     8    10    1
   10     8    11    1
   11    11    12    1
   12    11    13    1
   13    11    14    1
   14    14    15    1
   15    14    16    1
   16    14    17    1
   17    17    18    1
   18    17    19    1
   19    17    20    1
   20    20    21    1
   21    20    22    1
   22    20    23    1
@<TRIPOS>SUBSTRUCTURE
       1 MOL1            1 RESIDUE      1      MOL     
@<SCITEGIC>MOL_PROPERTY
VM2 Rank
SciTegic.value.IntegerValue
67

@<SCITEGIC>MOL_PROPERTY
Conf_Id
SciTegic.value.IntegerValue
755

@<SCITEGIC>MOL_PROPERTY
Probability
SciTegic.value.DoubleValue
0.01

@<SCITEGIC>MOL_PROPERTY
Sum Probability
SciTegic.value.DoubleValue
99.95

@<SCITEGIC>MOL_PROPERTY
Delta G
SciTegic.value.DoubleValue
4.049

@<SCITEGIC>MOL_PROPERTY
G
SciTegic.value.DoubleValue
41.965

@<SCITEGIC>MOL_PROPERTY
E
SciTegic.value.DoubleValue
13.736

@<SCITEGIC>MOL_PROPERTY
-TS
SciTegic.value.DoubleValue
28.229

@<SCITEGIC>MOL_PROPERTY
U+W
SciTegic.value.DoubleValue
-5.043

@<SCITEGIC>MOL_PROPERTY
U
SciTegic.value.DoubleValue
51.053

@<SCITEGIC>MOL_PROPERTY
W
SciTegic.value.DoubleValue
-56.096

@<SCITEGIC>MOL_PROPERTY
W(PB)
SciTegic.value.DoubleValue
-58.131

@<SCITEGIC>MOL_PROPERTY
W(SA)
SciTegic.value.DoubleValue
2.034

@<SCITEGIC>MOL_PROPERTY
Valence
SciTegic.value.DoubleValue
5.021

@<SCITEGIC>MOL_PROPERTY
Coulomb
SciTegic.value.DoubleValue
45.787

@<SCITEGIC>MOL_PROPERTY
VdW
SciTegic.value.DoubleValue
0.245

@<SCITEGIC>MOL_PROPERTY
VdW6
SciTegic.value.DoubleValue
-7.353

@<SCITEGIC>MOL_PROPERTY
VdW12
SciTegic.value.DoubleValue
7.598

@<SCITEGIC>MOL_PROPERTY
Bond
SciTegic.value.DoubleValue
0.229

@<SCITEGIC>MOL_PROPERTY
Angle
SciTegic.value.DoubleValue
1.631

@<SCITEGIC>MOL_PROPERTY
Pdih
SciTegic.value.DoubleValue
3.161

@<SCITEGIC>MOL_PROPERTY
Idih
SciTegic.value.DoubleValue
0.000

@<SCITEGIC>MOL_PROPERTY
Tether
SciTegic.value.DoubleValue
0.000

@<TRIPOS>MOLECULE
guest-2_vm2.mol2 : vm2 ligand conformer 68
          23          22           1
SMALL
USER_CHARGES
 
@<TRIPOS>ATOM
       1    N1      20.375151   18.520359   25.207949 N.4        1 MOL1        -0.5940
       2    H1      19.864446   18.966084   25.976689 H          1 MOL1         0.3649
       3    H2      21.090709   19.183343   24.895074 H          1 MOL1         0.3649
       4    H3      20.865736   17.711401   25.603695 H          1 MOL1         0.3649
       5    C1      19.450438   18.120478   24.075247 C.3        1 MOL1         0.0207
       6    H4      18.735010   17.393883   24.469815 H          1 MOL1         0.0950
       7    H5      20.050264   17.624964   23.307563 H          1 MOL1         0.0950
       8    C2      18.686182   19.306790   23.453266 C.3        1 MOL1        -0.1415
       9    H6      17.979128   18.930834   22.703940 H          1 MOL1         0.0976
      10    H7      18.070295   19.780445   24.229142 H          1 MOL1         0.0976
      11    C3      19.603601   20.377782   22.810921 C.3        1 MOL1        -0.1375
      12    H8      20.180054   20.873171   23.603684 H          1 MOL1         0.0976
      13    H9      18.974489   21.164268   22.371894 H          1 MOL1         0.0976
      14    C4      20.592818   19.860892   21.731232 C.3        1 MOL1        -0.1375
      15    H10     21.221745   20.711967   21.435312 H          1 MOL1         0.0976
      16    H11     21.285994   19.123584   22.157442 H          1 MOL1         0.0976
      17    C5      19.927864   19.298323   20.448001 C.3        1 MOL1        -0.1350
      18    H12     20.590311   19.507810   19.596391 H          1 MOL1         0.0976
      19    H13     18.990243   19.831589   20.238296 H          1 MOL1         0.0976
      20    C6      19.679945   17.772375   20.487384 C.3        1 MOL1        -0.2365
      21    H14     20.611893   17.226777   20.684118 H          1 MOL1         0.0987
      22    H15     19.289105   17.424448   19.522455 H          1 MOL1         0.0987
      23    H16     18.951582   17.491179   21.254777 H          1 MOL1         0.0987
@<TRIPOS>BOND
    1     1     2    1
    2     1     3    1
    3     1     4    1
    4     1     5    1
    5     5     6    1
    6     5     7    1
    7     5     8    1
    8     8     9    1
    9     8    10    1
   10     8    11    1
   11    11    12    1
   12    11    13    1
   13    11    14    1
   14    14    15    1
   15    14    16    1
   16    14    17    1
   17    17    18    1
   18    17    19    1
   19    17    20    1
   20    20    21    1
   21    20    22    1
   22    20    23    1
@<TRIPOS>SUBSTRUCTURE
       1 MOL1            1 RESIDUE      1      MOL     
@<SCITEGIC>MOL_PROPERTY
VM2 Rank
SciTegic.value.IntegerValue
68

@<SCITEGIC>MOL_PROPERTY
Conf_Id
SciTegic.value.IntegerValue
553

@<SCITEGIC>MOL_PROPERTY
Probability
SciTegic.value.DoubleValue
0.01

@<SCITEGIC>MOL_PROPERTY
Sum Probability
SciTegic.value.DoubleValue
99.96

@<SCITEGIC>MOL_PROPERTY
Delta G
SciTegic.value.DoubleValue
4.279

@<SCITEGIC>MOL_PROPERTY
G
SciTegic.value.DoubleValue
42.195

@<SCITEGIC>MOL_PROPERTY
E
SciTegic.value.DoubleValue
13.813

@<SCITEGIC>MOL_PROPERTY
-TS
SciTegic.value.DoubleValue
28.381

@<SCITEGIC>MOL_PROPERTY
U+W
SciTegic.value.DoubleValue
-4.966

@<SCITEGIC>MOL_PROPERTY
U
SciTegic.value.DoubleValue
51.195

@<SCITEGIC>MOL_PROPERTY
W
SciTegic.value.DoubleValue
-56.160

@<SCITEGIC>MOL_PROPERTY
W(PB)
SciTegic.value.DoubleValue
-58.178

@<SCITEGIC>MOL_PROPERTY
W(SA)
SciTegic.value.DoubleValue
2.018

@<SCITEGIC>MOL_PROPERTY
Valence
SciTegic.value.DoubleValue
5.115

@<SCITEGIC>MOL_PROPERTY
Coulomb
SciTegic.value.DoubleValue
45.778

@<SCITEGIC>MOL_PROPERTY
VdW
SciTegic.value.DoubleValue
0.302

@<SCITEGIC>MOL_PROPERTY
VdW6
SciTegic.value.DoubleValue
-7.949

@<SCITEGIC>MOL_PROPERTY
VdW12
SciTegic.value.DoubleValue
8.251

@<SCITEGIC>MOL_PROPERTY
Bond
SciTegic.value.DoubleValue
0.252

@<SCITEGIC>MOL_PROPERTY
Angle
SciTegic.value.DoubleValue
1.729

@<SCITEGIC>MOL_PROPERTY
Pdih
SciTegic.value.DoubleValue
3.134

@<SCITEGIC>MOL_PROPERTY
Idih
SciTegic.value.DoubleValue
0.000

@<SCITEGIC>MOL_PROPERTY
Tether
SciTegic.value.DoubleValue
0.000

@<TRIPOS>MOLECULE
guest-2_vm2.mol2 : vm2 ligand conformer 69
          23          22           1
SMALL
USER_CHARGES
 
@<TRIPOS>ATOM
       1    N1      19.490764   18.152267   25.167389 N.4        1 MOL1        -0.5940
       2    H1      19.688710   17.221540   25.549833 H          1 MOL1         0.3649
       3    H2      18.543459   18.123107   24.778517 H          1 MOL1         0.3649
       4    H3      19.473623   18.803489   25.958633 H          1 MOL1         0.3649
       5    C1      20.510904   18.561783   24.123537 C.3        1 MOL1         0.0207
       6    H4      20.500597   17.812349   23.327983 H          1 MOL1         0.0950
       7    H5      21.496839   18.543243   24.595821 H          1 MOL1         0.0950
       8    C2      20.255395   19.959820   23.524794 C.3        1 MOL1        -0.1415
       9    H6      20.292007   20.704968   24.330439 H          1 MOL1         0.0976
      10    H7      21.075954   20.219567   22.845110 H          1 MOL1         0.0976
      11    C3      18.902962   20.086303   22.778993 C.3        1 MOL1        -0.1375
      12    H8      18.821622   21.100676   22.364846 H          1 MOL1         0.0976
      13    H9      18.086117   20.002020   23.508267 H          1 MOL1         0.0976
      14    C4      18.658446   19.055980   21.643170 C.3        1 MOL1        -0.1375
      15    H10     18.661039   18.031341   22.037985 H          1 MOL1         0.0976
      16    H11     17.637324   19.220436   21.272077 H          1 MOL1         0.0976
      17    C5      19.622967   19.171375   20.434160 C.3        1 MOL1        -0.1350
      18    H12     19.919544   20.218241   20.280551 H          1 MOL1         0.0976
      19    H13     19.075751   18.877344   19.527485 H          1 MOL1         0.0976
      20    C6      20.874562   18.269472   20.541956 C.3        1 MOL1        -0.2365
      21    H14     21.525424   18.562411   21.372040 H          1 MOL1         0.0987
      22    H15     21.469953   18.331786   19.621889 H          1 MOL1         0.0987
      23    H16     20.591720   17.218360   20.683626 H          1 MOL1         0.0987
@<TRIPOS>BOND
    1     1     2    1
    2     1     3    1
    3     1     4    1
    4     1     5    1
    5     5     6    1
    6     5     7    1
    7     5     8    1
    8     8     9    1
    9     8    10    1
   10     8    11    1
   11    11    12    1
   12    11    13    1
   13    11    14    1
   14    14    15    1
   15    14    16    1
   16    14    17    1
   17    17    18    1
   18    17    19    1
   19    17    20    1
   20    20    21    1
   21    20    22    1
   22    20    23    1
@<TRIPOS>SUBSTRUCTURE
       1 MOL1            1 RESIDUE      1      MOL     
@<SCITEGIC>MOL_PROPERTY
VM2 Rank
SciTegic.value.IntegerValue
69

@<SCITEGIC>MOL_PROPERTY
Conf_Id
SciTegic.value.IntegerValue
488

@<SCITEGIC>MOL_PROPERTY
Probability
SciTegic.value.DoubleValue
0.01

@<SCITEGIC>MOL_PROPERTY
Sum Probability
SciTegic.value.DoubleValue
99.97

@<SCITEGIC>MOL_PROPERTY
Delta G
SciTegic.value.DoubleValue
4.288

@<SCITEGIC>MOL_PROPERTY
G
SciTegic.value.DoubleValue
42.204

@<SCITEGIC>MOL_PROPERTY
E
SciTegic.value.DoubleValue
13.823

@<SCITEGIC>MOL_PROPERTY
-TS
SciTegic.value.DoubleValue
28.381

@<SCITEGIC>MOL_PROPERTY
U+W
SciTegic.value.DoubleValue
-4.956

@<SCITEGIC>MOL_PROPERTY
U
SciTegic.value.DoubleValue
51.195

@<SCITEGIC>MOL_PROPERTY
W
SciTegic.value.DoubleValue
-56.152

@<SCITEGIC>MOL_PROPERTY
W(PB)
SciTegic.value.DoubleValue
-58.166

@<SCITEGIC>MOL_PROPERTY
W(SA)
SciTegic.value.DoubleValue
2.015

@<SCITEGIC>MOL_PROPERTY
Valence
SciTegic.value.DoubleValue
5.115

@<SCITEGIC>MOL_PROPERTY
Coulomb
SciTegic.value.DoubleValue
45.778

@<SCITEGIC>MOL_PROPERTY
VdW
SciTegic.value.DoubleValue
0.302

@<SCITEGIC>MOL_PROPERTY
VdW6
SciTegic.value.DoubleValue
-7.950

@<SCITEGIC>MOL_PROPERTY
VdW12
SciTegic.value.DoubleValue
8.252

@<SCITEGIC>MOL_PROPERTY
Bond
SciTegic.value.DoubleValue
0.252

@<SCITEGIC>MOL_PROPERTY
Angle
SciTegic.value.DoubleValue
1.729

@<SCITEGIC>MOL_PROPERTY
Pdih
SciTegic.value.DoubleValue
3.133

@<SCITEGIC>MOL_PROPERTY
Idih
SciTegic.value.DoubleValue
0.000

@<SCITEGIC>MOL_PROPERTY
Tether
SciTegic.value.DoubleValue
0.000

@<TRIPOS>MOLECULE
guest-2_vm2.mol2 : vm2 ligand conformer 70
          23          22           1
SMALL
USER_CHARGES
 
@<TRIPOS>ATOM
       1    N1      20.134754   17.627711   24.254195 N.4        1 MOL1        -0.5940
       2    H1      19.308186   17.032352   24.140708 H          1 MOL1         0.3649
       3    H2      20.776862   17.130102   24.880509 H          1 MOL1         0.3649
       4    H3      20.589841   17.693139   23.339045 H          1 MOL1         0.3649
       5    C1      19.769355   18.996041   24.795538 C.3        1 MOL1         0.0207
       6    H4      20.691428   19.551934   24.985332 H          1 MOL1         0.0950
       7    H5      19.266787   18.836852   25.753435 H          1 MOL1         0.0950
       8    C2      18.846316   19.818120   23.871866 C.3        1 MOL1        -0.1415
       9    H6      18.046364   19.182633   23.471322 H          1 MOL1         0.0976
      10    H7      18.341496   20.570579   24.492138 H          1 MOL1         0.0976
      11    C3      19.584527   20.568241   22.730509 C.3        1 MOL1        -0.1375
      12    H8      20.298659   21.273834   23.177205 H          1 MOL1         0.0976
      13    H9      18.854777   21.186414   22.189575 H          1 MOL1         0.0976
      14    C4      20.340056   19.683167   21.706606 C.3        1 MOL1        -0.1375
      15    H10     20.824224   20.344302   20.974472 H          1 MOL1         0.0976
      16    H11     21.158257   19.146590   22.202319 H          1 MOL1         0.0976
      17    C5      19.425168   18.692605   20.947744 C.3        1 MOL1        -0.1350
      18    H12     18.623816   19.247497   20.440036 H          1 MOL1         0.0976
      19    H13     18.934701   18.004763   21.647960 H          1 MOL1         0.0976
      20    C6      20.215824   17.871115   19.907542 C.3        1 MOL1        -0.2365
      21    H14     20.684214   18.525753   19.160996 H          1 MOL1         0.0987
      22    H15     19.551774   17.177009   19.376187 H          1 MOL1         0.0987
      23    H16     21.006565   17.279810   20.387165 H          1 MOL1         0.0987
@<TRIPOS>BOND
    1     1     2    1
    2     1     3    1
    3     1     4    1
    4     1     5    1
    5     5     6    1
    6     5     7    1
    7     5     8    1
    8     8     9    1
    9     8    10    1
   10     8    11    1
   11    11    12    1
   12    11    13    1
   13    11    14    1
   14    14    15    1
   15    14    16    1
   16    14    17    1
   17    17    18    1
   18    17    19    1
   19    17    20    1
   20    20    21    1
   21    20    22    1
   22    20    23    1
@<TRIPOS>SUBSTRUCTURE
       1 MOL1            1 RESIDUE      1      MOL     
@<SCITEGIC>MOL_PROPERTY
VM2 Rank
SciTegic.value.IntegerValue
70

@<SCITEGIC>MOL_PROPERTY
Conf_Id
SciTegic.value.IntegerValue
719

@<SCITEGIC>MOL_PROPERTY
Probability
SciTegic.value.DoubleValue
0.01

@<SCITEGIC>MOL_PROPERTY
Sum Probability
SciTegic.value.DoubleValue
99.98

@<SCITEGIC>MOL_PROPERTY
Delta G
SciTegic.value.DoubleValue
4.458

@<SCITEGIC>MOL_PROPERTY
G
SciTegic.value.DoubleValue
42.374

@<SCITEGIC>MOL_PROPERTY
E
SciTegic.value.DoubleValue
14.098

@<SCITEGIC>MOL_PROPERTY
-TS
SciTegic.value.DoubleValue
28.276

@<SCITEGIC>MOL_PROPERTY
U+W
SciTegic.value.DoubleValue
-4.681

@<SCITEGIC>MOL_PROPERTY
U
SciTegic.value.DoubleValue
50.876

@<SCITEGIC>MOL_PROPERTY
W
SciTegic.value.DoubleValue
-55.558

@<SCITEGIC>MOL_PROPERTY
W(PB)
SciTegic.value.DoubleValue
-57.617

@<SCITEGIC>MOL_PROPERTY
W(SA)
SciTegic.value.DoubleValue
2.059

@<SCITEGIC>MOL_PROPERTY
Valence
SciTegic.value.DoubleValue
3.812

@<SCITEGIC>MOL_PROPERTY
Coulomb
SciTegic.value.DoubleValue
46.852

@<SCITEGIC>MOL_PROPERTY
VdW
SciTegic.value.DoubleValue
0.213

@<SCITEGIC>MOL_PROPERTY
VdW6
SciTegic.value.DoubleValue
-7.416

@<SCITEGIC>MOL_PROPERTY
VdW12
SciTegic.value.DoubleValue
7.629

@<SCITEGIC>MOL_PROPERTY
Bond
SciTegic.value.DoubleValue
0.215

@<SCITEGIC>MOL_PROPERTY
Angle
SciTegic.value.DoubleValue
1.470

@<SCITEGIC>MOL_PROPERTY
Pdih
SciTegic.value.DoubleValue
2.127

@<SCITEGIC>MOL_PROPERTY
Idih
SciTegic.value.DoubleValue
0.000

@<SCITEGIC>MOL_PROPERTY
Tether
SciTegic.value.DoubleValue
0.000

@<TRIPOS>MOLECULE
guest-2_vm2.mol2 : vm2 ligand conformer 71
          23          22           1
SMALL
USER_CHARGES
 
@<TRIPOS>ATOM
       1    N1      20.365876   17.723870   24.264664 N.4        1 MOL1        -0.5940
       2    H1      20.071196   17.477212   23.315341 H          1 MOL1         0.3649
       3    H2      20.219246   16.897947   24.855035 H          1 MOL1         0.3649
       4    H3      21.376319   17.893167   24.234898 H          1 MOL1         0.3649
       5    C1      19.611081   18.930114   24.788267 C.3        1 MOL1         0.0207
       6    H4      20.002074   19.142810   25.786952 H          1 MOL1         0.0950
       7    H5      18.555639   18.662925   24.887808 H          1 MOL1         0.0950
       8    C2      19.748238   20.193487   23.913019 C.3        1 MOL1        -0.1415
       9    H6      19.521418   21.061612   24.546019 H          1 MOL1         0.0976
      10    H7      20.790725   20.324821   23.596513 H          1 MOL1         0.0976
      11    C3      18.787563   20.236627   22.694175 C.3        1 MOL1        -0.1375
      12    H8      18.903891   21.206878   22.191817 H          1 MOL1         0.0976
      13    H9      17.752064   20.214138   23.061078 H          1 MOL1         0.0976
      14    C4      18.963601   19.110388   21.643864 C.3        1 MOL1        -0.1375
      15    H10     18.730999   18.136510   22.091699 H          1 MOL1         0.0976
      16    H11     18.212404   19.257400   20.855429 H          1 MOL1         0.0976
      17    C5      20.365984   19.084186   20.990611 C.3        1 MOL1        -0.1350
      18    H12     21.142995   18.923937   21.748608 H          1 MOL1         0.0976
      19    H13     20.574677   20.059402   20.528831 H          1 MOL1         0.0976
      20    C6      20.473657   17.978328   19.919399 C.3        1 MOL1        -0.2365
      21    H14     21.472439   17.976194   19.463862 H          1 MOL1         0.0987
      22    H15     19.739279   18.132307   19.117994 H          1 MOL1         0.0987
      23    H16     20.300331   16.985857   20.355186 H          1 MOL1         0.0987
@<TRIPOS>BOND
    1     1     2    1
    2     1     3    1
    3     1     4    1
    4     1     5    1
    5     5     6    1
    6     5     7    1
    7     5     8    1
    8     8     9    1
    9     8    10    1
   10     8    11    1
   11    11    12    1
   12    11    13    1
   13    11    14    1
   14    14    15    1
   15    14    16    1
   16    14    17    1
   17    17    18    1
   18    17    19    1
   19    17    20    1
   20    20    21    1
   21    20    22    1
   22    20    23    1
@<TRIPOS>SUBSTRUCTURE
       1 MOL1            1 RESIDUE      1      MOL     
@<SCITEGIC>MOL_PROPERTY
VM2 Rank
SciTegic.value.IntegerValue
71

@<SCITEGIC>MOL_PROPERTY
Conf_Id
SciTegic.value.IntegerValue
495

@<SCITEGIC>MOL_PROPERTY
Probability
SciTegic.value.DoubleValue
0.01

@<SCITEGIC>MOL_PROPERTY
Sum Probability
SciTegic.value.DoubleValue
99.98

@<SCITEGIC>MOL_PROPERTY
Delta G
SciTegic.value.DoubleValue
4.547

@<SCITEGIC>MOL_PROPERTY
G
SciTegic.value.DoubleValue
42.463

@<SCITEGIC>MOL_PROPERTY
E
SciTegic.value.DoubleValue
14.187

@<SCITEGIC>MOL_PROPERTY
-TS
SciTegic.value.DoubleValue
28.276

@<SCITEGIC>MOL_PROPERTY
U+W
SciTegic.value.DoubleValue
-4.592

@<SCITEGIC>MOL_PROPERTY
U
SciTegic.value.DoubleValue
50.877

@<SCITEGIC>MOL_PROPERTY
W
SciTegic.value.DoubleValue
-55.469

@<SCITEGIC>MOL_PROPERTY
W(PB)
SciTegic.value.DoubleValue
-57.490

@<SCITEGIC>MOL_PROPERTY
W(SA)
SciTegic.value.DoubleValue
2.022

@<SCITEGIC>MOL_PROPERTY
Valence
SciTegic.value.DoubleValue
3.812

@<SCITEGIC>MOL_PROPERTY
Coulomb
SciTegic.value.DoubleValue
46.852

@<SCITEGIC>MOL_PROPERTY
VdW
SciTegic.value.DoubleValue
0.213

@<SCITEGIC>MOL_PROPERTY
VdW6
SciTegic.value.DoubleValue
-7.416

@<SCITEGIC>MOL_PROPERTY
VdW12
SciTegic.value.DoubleValue
7.628

@<SCITEGIC>MOL_PROPERTY
Bond
SciTegic.value.DoubleValue
0.215

@<SCITEGIC>MOL_PROPERTY
Angle
SciTegic.value.DoubleValue
1.471

@<SCITEGIC>MOL_PROPERTY
Pdih
SciTegic.value.DoubleValue
2.127

@<SCITEGIC>MOL_PROPERTY
Idih
SciTegic.value.DoubleValue
0.000

@<SCITEGIC>MOL_PROPERTY
Tether
SciTegic.value.DoubleValue
0.000

@<TRIPOS>MOLECULE
guest-2_vm2.mol2 : vm2 ligand conformer 72
          23          22           1
SMALL
USER_CHARGES
 
@<TRIPOS>ATOM
       1    N1      19.499439   17.699619   24.762564 N.4        1 MOL1        -0.5940
       2    H1      19.979087   17.906267   25.644559 H          1 MOL1         0.3649
       3    H2      20.185101   17.259920   24.141911 H          1 MOL1         0.3649
       4    H3      18.784158   16.994654   24.970542 H          1 MOL1         0.3649
       5    C1      18.897451   18.947165   24.145319 C.3        1 MOL1         0.0207
       6    H4      18.165519   19.343086   24.854555 H          1 MOL1         0.0950
       7    H5      18.365031   18.653172   23.238946 H          1 MOL1         0.0950
       8    C2      19.936898   20.041077   23.824830 C.3        1 MOL1        -0.1415
       9    H6      19.416559   20.970993   23.560076 H          1 MOL1         0.0976
      10    H7      20.495724   20.261744   24.744012 H          1 MOL1         0.0976
      11    C3      20.939904   19.667238   22.700547 C.3        1 MOL1        -0.1375
      12    H8      21.241923   18.615444   22.778658 H          1 MOL1         0.0976
      13    H9      21.859752   20.244196   22.868645 H          1 MOL1         0.0976
      14    C4      20.453721   19.989729   21.261460 C.3        1 MOL1        -0.1375
      15    H10     20.257605   21.068206   21.186704 H          1 MOL1         0.0976
      16    H11     21.277682   19.789795   20.562639 H          1 MOL1         0.0976
      17    C5      19.199168   19.222853   20.775038 C.3        1 MOL1        -0.1350
      18    H12     18.956677   19.564600   19.759098 H          1 MOL1         0.0976
      19    H13     18.329230   19.486563   21.389592 H          1 MOL1         0.0976
      20    C6      19.389419   17.689319   20.744242 C.3        1 MOL1        -0.2365
      21    H14     20.250223   17.412689   20.121809 H          1 MOL1         0.0987
      22    H15     18.501152   17.200201   20.324029 H          1 MOL1         0.0987
      23    H16     19.548546   17.279540   21.748013 H          1 MOL1         0.0987
@<TRIPOS>BOND
    1     1     2    1
    2     1     3    1
    3     1     4    1
    4     1     5    1
    5     5     6    1
    6     5     7    1
    7     5     8    1
    8     8     9    1
    9     8    10    1
   10     8    11    1
   11    11    12    1
   12    11    13    1
   13    11    14    1
   14    14    15    1
   15    14    16    1
   16    14    17    1
   17    17    18    1
   18    17    19    1
   19    17    20    1
   20    20    21    1
   21    20    22    1
   22    20    23    1
@<TRIPOS>SUBSTRUCTURE
       1 MOL1            1 RESIDUE      1      MOL     
@<SCITEGIC>MOL_PROPERTY
VM2 Rank
SciTegic.value.IntegerValue
72

@<SCITEGIC>MOL_PROPERTY
Conf_Id
SciTegic.value.IntegerValue
295

@<SCITEGIC>MOL_PROPERTY
Probability
SciTegic.value.DoubleValue
0.01

@<SCITEGIC>MOL_PROPERTY
Sum Probability
SciTegic.value.DoubleValue
99.99

@<SCITEGIC>MOL_PROPERTY
Delta G
SciTegic.value.DoubleValue
4.550

@<SCITEGIC>MOL_PROPERTY
G
SciTegic.value.DoubleValue
42.466

@<SCITEGIC>MOL_PROPERTY
E
SciTegic.value.DoubleValue
13.890

@<SCITEGIC>MOL_PROPERTY
-TS
SciTegic.value.DoubleValue
28.576

@<SCITEGIC>MOL_PROPERTY
U+W
SciTegic.value.DoubleValue
-4.889

@<SCITEGIC>MOL_PROPERTY
U
SciTegic.value.DoubleValue
51.403

@<SCITEGIC>MOL_PROPERTY
W
SciTegic.value.DoubleValue
-56.291

@<SCITEGIC>MOL_PROPERTY
W(PB)
SciTegic.value.DoubleValue
-58.317

@<SCITEGIC>MOL_PROPERTY
W(SA)
SciTegic.value.DoubleValue
2.025

@<SCITEGIC>MOL_PROPERTY
Valence
SciTegic.value.DoubleValue
4.890

@<SCITEGIC>MOL_PROPERTY
Coulomb
SciTegic.value.DoubleValue
46.339

@<SCITEGIC>MOL_PROPERTY
VdW
SciTegic.value.DoubleValue
0.173

@<SCITEGIC>MOL_PROPERTY
VdW6
SciTegic.value.DoubleValue
-8.061

@<SCITEGIC>MOL_PROPERTY
VdW12
SciTegic.value.DoubleValue
8.235

@<SCITEGIC>MOL_PROPERTY
Bond
SciTegic.value.DoubleValue
0.255

@<SCITEGIC>MOL_PROPERTY
Angle
SciTegic.value.DoubleValue
1.788

@<SCITEGIC>MOL_PROPERTY
Pdih
SciTegic.value.DoubleValue
2.848

@<SCITEGIC>MOL_PROPERTY
Idih
SciTegic.value.DoubleValue
0.000

@<SCITEGIC>MOL_PROPERTY
Tether
SciTegic.value.DoubleValue
0.000

@<TRIPOS>MOLECULE
guest-2_vm2.mol2 : vm2 ligand conformer 73
          23          22           1
SMALL
USER_CHARGES
 
@<TRIPOS>ATOM
       1    N1      19.364015   17.779552   24.591923 N.4        1 MOL1        -0.5940
       2    H1      18.866935   17.428372   25.417557 H          1 MOL1         0.3649
       3    H2      20.133886   17.128529   24.408089 H          1 MOL1         0.3649
       4    H3      18.718304   17.719109   23.799832 H          1 MOL1         0.3649
       5    C1      19.864518   19.195359   24.798102 C.3        1 MOL1         0.0207
       6    H4      20.551751   19.170461   25.648135 H          1 MOL1         0.0950
       7    H5      19.014333   19.826940   25.069262 H          1 MOL1         0.0950
       8    C2      20.593413   19.798911   23.579303 C.3        1 MOL1        -0.1415
       9    H6      21.208159   20.632834   23.943081 H          1 MOL1         0.0976
      10    H7      21.300757   19.072457   23.159697 H          1 MOL1         0.0976
      11    C3      19.649871   20.355851   22.479808 C.3        1 MOL1        -0.1375
      12    H8      20.254875   20.897229   21.740372 H          1 MOL1         0.0976
      13    H9      18.993486   21.113839   22.929053 H          1 MOL1         0.0976
      14    C4      18.768369   19.312932   21.742076 C.3        1 MOL1        -0.1375
      15    H10     18.031749   18.894218   22.438564 H          1 MOL1         0.0976
      16    H11     18.175993   19.838787   20.980555 H          1 MOL1         0.0976
      17    C5      19.544517   18.161334   21.052801 C.3        1 MOL1        -0.1350
      18    H12     18.819514   17.480000   20.585939 H          1 MOL1         0.0976
      19    H13     20.086216   17.562647   21.795987 H          1 MOL1         0.0976
      20    C6      20.531298   18.653059   19.969988 C.3        1 MOL1        -0.2365
      21    H14     20.018491   19.266417   19.217820 H          1 MOL1         0.0987
      22    H15     20.990321   17.800951   19.452250 H          1 MOL1         0.0987
      23    H16     21.341726   19.250171   20.406241 H          1 MOL1         0.0987
@<TRIPOS>BOND
    1     1     2    1
    2     1     3    1
    3     1     4    1
    4     1     5    1
    5     5     6    1
    6     5     7    1
    7     5     8    1
    8     8     9    1
    9     8    10    1
   10     8    11    1
   11    11    12    1
   12    11    13    1
   13    11    14    1
   14    14    15    1
   15    14    16    1
   16    14    17    1
   17    17    18    1
   18    17    19    1
   19    17    20    1
   20    20    21    1
   21    20    22    1
   22    20    23    1
@<TRIPOS>SUBSTRUCTURE
       1 MOL1            1 RESIDUE      1      MOL     
@<SCITEGIC>MOL_PROPERTY
VM2 Rank
SciTegic.value.IntegerValue
73

@<SCITEGIC>MOL_PROPERTY
Conf_Id
SciTegic.value.IntegerValue
572

@<SCITEGIC>MOL_PROPERTY
Probability
SciTegic.value.DoubleValue
0.01

@<SCITEGIC>MOL_PROPERTY
Sum Probability
SciTegic.value.DoubleValue
99.99

@<SCITEGIC>MOL_PROPERTY
Delta G
SciTegic.value.DoubleValue
4.664

@<SCITEGIC>MOL_PROPERTY
G
SciTegic.value.DoubleValue
42.580

@<SCITEGIC>MOL_PROPERTY
E
SciTegic.value.DoubleValue
14.117

@<SCITEGIC>MOL_PROPERTY
-TS
SciTegic.value.DoubleValue
28.463

@<SCITEGIC>MOL_PROPERTY
U+W
SciTegic.value.DoubleValue
-4.662

@<SCITEGIC>MOL_PROPERTY
U
SciTegic.value.DoubleValue
51.396

@<SCITEGIC>MOL_PROPERTY
W
SciTegic.value.DoubleValue
-56.058

@<SCITEGIC>MOL_PROPERTY
W(PB)
SciTegic.value.DoubleValue
-58.085

@<SCITEGIC>MOL_PROPERTY
W(SA)
SciTegic.value.DoubleValue
2.026

@<SCITEGIC>MOL_PROPERTY
Valence
SciTegic.value.DoubleValue
4.231

@<SCITEGIC>MOL_PROPERTY
Coulomb
SciTegic.value.DoubleValue
46.940

@<SCITEGIC>MOL_PROPERTY
VdW
SciTegic.value.DoubleValue
0.225

@<SCITEGIC>MOL_PROPERTY
VdW6
SciTegic.value.DoubleValue
-8.093

@<SCITEGIC>MOL_PROPERTY
VdW12
SciTegic.value.DoubleValue
8.318

@<SCITEGIC>MOL_PROPERTY
Bond
SciTegic.value.DoubleValue
0.258

@<SCITEGIC>MOL_PROPERTY
Angle
SciTegic.value.DoubleValue
1.778

@<SCITEGIC>MOL_PROPERTY
Pdih
SciTegic.value.DoubleValue
2.195

@<SCITEGIC>MOL_PROPERTY
Idih
SciTegic.value.DoubleValue
0.000

@<SCITEGIC>MOL_PROPERTY
Tether
SciTegic.value.DoubleValue
0.000

@<TRIPOS>MOLECULE
guest-2_vm2.mol2 : vm2 ligand conformer 74
          23          22           1
SMALL
USER_CHARGES
 
@<TRIPOS>ATOM
       1    N1      20.773158   18.366320   24.656084 N.4        1 MOL1        -0.5940
       2    H1      21.330352   18.806920   23.918922 H          1 MOL1         0.3649
       3    H2      20.708693   17.367884   24.434046 H          1 MOL1         0.3649
       4    H3      21.306577   18.444140   25.528721 H          1 MOL1         0.3649
       5    C1      19.402975   19.003099   24.777057 C.3        1 MOL1         0.0207
       6    H4      19.530791   20.041899   25.092950 H          1 MOL1         0.0950
       7    H5      18.872643   18.471062   25.571508 H          1 MOL1         0.0950
       8    C2      18.558613   18.951700   23.486533 C.3        1 MOL1        -0.1415
       9    H6      18.609564   17.951988   23.036955 H          1 MOL1         0.0976
      10    H7      17.508379   19.092409   23.774428 H          1 MOL1         0.0976
      11    C3      18.911252   20.048354   22.446178 C.3        1 MOL1        -0.1375
      12    H8      18.799931   21.033238   22.920330 H          1 MOL1         0.0976
      13    H9      18.160637   20.025398   21.644967 H          1 MOL1         0.0976
      14    C4      20.325660   19.961354   21.813047 C.3        1 MOL1        -0.1375
      15    H10     20.427709   20.776332   21.083153 H          1 MOL1         0.0976
      16    H11     21.085037   20.165535   22.577691 H          1 MOL1         0.0976
      17    C5      20.650479   18.621823   21.103235 C.3        1 MOL1        -0.1350
      18    H12     20.636993   17.791993   21.821140 H          1 MOL1         0.0976
      19    H13     21.677953   18.670149   20.716237 H          1 MOL1         0.0976
      20    C6      19.693862   18.304349   19.931866 C.3        1 MOL1        -0.2365
      21    H14     18.668506   18.137105   20.284466 H          1 MOL1         0.0987
      22    H15     20.015686   17.395100   19.407899 H          1 MOL1         0.0987
      23    H16     19.677385   19.124344   19.202295 H          1 MOL1         0.0987
@<TRIPOS>BOND
    1     1     2    1
    2     1     3    1
    3     1     4    1
    4     1     5    1
    5     5     6    1
    6     5     7    1
    7     5     8    1
    8     8     9    1
    9     8    10    1
   10     8    11    1
   11    11    12    1
   12    11    13    1
   13    11    14    1
   14    14    15    1
   15    14    16    1
   16    14    17    1
   17    17    18    1
   18    17    19    1
   19    17    20    1
   20    20    21    1
   21    20    22    1
   22    20    23    1
@<TRIPOS>SUBSTRUCTURE
       1 MOL1            1 RESIDUE      1      MOL     
@<SCITEGIC>MOL_PROPERTY
VM2 Rank
SciTegic.value.IntegerValue
74

@<SCITEGIC>MOL_PROPERTY
Conf_Id
SciTegic.value.IntegerValue
569

@<SCITEGIC>MOL_PROPERTY
Probability
SciTegic.value.DoubleValue
0.00

@<SCITEGIC>MOL_PROPERTY
Sum Probability
SciTegic.value.DoubleValue
100.00

@<SCITEGIC>MOL_PROPERTY
Delta G
SciTegic.value.DoubleValue
4.719

@<SCITEGIC>MOL_PROPERTY
G
SciTegic.value.DoubleValue
42.635

@<SCITEGIC>MOL_PROPERTY
E
SciTegic.value.DoubleValue
14.172

@<SCITEGIC>MOL_PROPERTY
-TS
SciTegic.value.DoubleValue
28.463

@<SCITEGIC>MOL_PROPERTY
U+W
SciTegic.value.DoubleValue
-4.607

@<SCITEGIC>MOL_PROPERTY
U
SciTegic.value.DoubleValue
51.396

@<SCITEGIC>MOL_PROPERTY
W
SciTegic.value.DoubleValue
-56.004

@<SCITEGIC>MOL_PROPERTY
W(PB)
SciTegic.value.DoubleValue
-58.024

@<SCITEGIC>MOL_PROPERTY
W(SA)
SciTegic.value.DoubleValue
2.020

@<SCITEGIC>MOL_PROPERTY
Valence
SciTegic.value.DoubleValue
4.231

@<SCITEGIC>MOL_PROPERTY
Coulomb
SciTegic.value.DoubleValue
46.940

@<SCITEGIC>MOL_PROPERTY
VdW
SciTegic.value.DoubleValue
0.225

@<SCITEGIC>MOL_PROPERTY
VdW6
SciTegic.value.DoubleValue
-8.093

@<SCITEGIC>MOL_PROPERTY
VdW12
SciTegic.value.DoubleValue
8.318

@<SCITEGIC>MOL_PROPERTY
Bond
SciTegic.value.DoubleValue
0.258

@<SCITEGIC>MOL_PROPERTY
Angle
SciTegic.value.DoubleValue
1.779

@<SCITEGIC>MOL_PROPERTY
Pdih
SciTegic.value.DoubleValue
2.194

@<SCITEGIC>MOL_PROPERTY
Idih
SciTegic.value.DoubleValue
0.000

@<SCITEGIC>MOL_PROPERTY
Tether
SciTegic.value.DoubleValue
0.000

@<TRIPOS>MOLECULE
guest-2_vm2.mol2 : vm2 ligand conformer 75
          23          22           1
SMALL
USER_CHARGES
 
@<TRIPOS>ATOM
       1    N1      20.853685   18.509557   25.244529 N.4        1 MOL1        -0.5940
       2    H1      21.098065   17.565284   24.929748 H          1 MOL1         0.3649
       3    H2      20.234772   18.406229   26.055115 H          1 MOL1         0.3649
       4    H3      21.718298   18.944424   25.584019 H          1 MOL1         0.3649
       5    C1      20.208611   19.324940   24.142385 C.3        1 MOL1         0.0207
       6    H4      20.933263   19.424935   23.331918 H          1 MOL1         0.0950
       7    H5      20.001422   20.322460   24.539093 H          1 MOL1         0.0950
       8    C2      18.903522   18.698967   23.613530 C.3        1 MOL1        -0.1415
       9    H6      19.081054   17.674575   23.260972 H          1 MOL1         0.0976
      10    H7      18.200846   18.618631   24.453610 H          1 MOL1         0.0976
      11    C3      18.239289   19.539584   22.495116 C.3        1 MOL1        -0.1375
      12    H8      18.342906   20.610222   22.719924 H          1 MOL1         0.0976
      13    H9      17.159416   19.337521   22.517525 H          1 MOL1         0.0976
      14    C4      18.734645   19.249703   21.052186 C.3        1 MOL1        -0.1375
      15    H10     18.523920   18.204842   20.785533 H          1 MOL1         0.0976
      16    H11     18.121222   19.854021   20.369528 H          1 MOL1         0.0976
      17    C5      20.222560   19.581789   20.773670 C.3        1 MOL1        -0.1350
      18    H12     20.564153   20.394342   21.428993 H          1 MOL1         0.0976
      19    H13     20.308308   19.970360   19.749148 H          1 MOL1         0.0976
      20    C6      21.153688   18.352459   20.892583 C.3        1 MOL1        -0.2365
      21    H14     21.102660   17.888875   21.883596 H          1 MOL1         0.0987
      22    H15     22.197079   18.640332   20.710016 H          1 MOL1         0.0987
      23    H16     20.885379   17.587717   20.152151 H          1 MOL1         0.0987
@<TRIPOS>BOND
    1     1     2    1
    2     1     3    1
    3     1     4    1
    4     1     5    1
    5     5     6    1
    6     5     7    1
    7     5     8    1
    8     8     9    1
    9     8    10    1
   10     8    11    1
   11    11    12    1
   12    11    13    1
   13    11    14    1
   14    14    15    1
   15    14    16    1
   16    14    17    1
   17    17    18    1
   18    17    19    1
   19    17    20    1
   20    20    21    1
   21    20    22    1
   22    20    23    1
@<TRIPOS>SUBSTRUCTURE
       1 MOL1            1 RESIDUE      1      MOL     
@<SCITEGIC>MOL_PROPERTY
VM2 Rank
SciTegic.value.IntegerValue
75

@<SCITEGIC>MOL_PROPERTY
Conf_Id
SciTegic.value.IntegerValue
672

@<SCITEGIC>MOL_PROPERTY
Probability
SciTegic.value.DoubleValue
0.00

@<SCITEGIC>MOL_PROPERTY
Sum Probability
SciTegic.value.DoubleValue
100.00

@<SCITEGIC>MOL_PROPERTY
Delta G
SciTegic.value.DoubleValue
5.841

@<SCITEGIC>MOL_PROPERTY
G
SciTegic.value.DoubleValue
43.757

@<SCITEGIC>MOL_PROPERTY
E
SciTegic.value.DoubleValue
15.364

@<SCITEGIC>MOL_PROPERTY
-TS
SciTegic.value.DoubleValue
28.393

@<SCITEGIC>MOL_PROPERTY
U+W
SciTegic.value.DoubleValue
-3.416

@<SCITEGIC>MOL_PROPERTY
U
SciTegic.value.DoubleValue
52.784

@<SCITEGIC>MOL_PROPERTY
W
SciTegic.value.DoubleValue
-56.200

@<SCITEGIC>MOL_PROPERTY
W(PB)
SciTegic.value.DoubleValue
-58.238

@<SCITEGIC>MOL_PROPERTY
W(SA)
SciTegic.value.DoubleValue
2.038

@<SCITEGIC>MOL_PROPERTY
Valence
SciTegic.value.DoubleValue
6.630

@<SCITEGIC>MOL_PROPERTY
Coulomb
SciTegic.value.DoubleValue
45.869

@<SCITEGIC>MOL_PROPERTY
VdW
SciTegic.value.DoubleValue
0.285

@<SCITEGIC>MOL_PROPERTY
VdW6
SciTegic.value.DoubleValue
-7.559

@<SCITEGIC>MOL_PROPERTY
VdW12
SciTegic.value.DoubleValue
7.845

@<SCITEGIC>MOL_PROPERTY
Bond
SciTegic.value.DoubleValue
0.231

@<SCITEGIC>MOL_PROPERTY
Angle
SciTegic.value.DoubleValue
1.767

@<SCITEGIC>MOL_PROPERTY
Pdih
SciTegic.value.DoubleValue
4.632

@<SCITEGIC>MOL_PROPERTY
Idih
SciTegic.value.DoubleValue
0.000

@<SCITEGIC>MOL_PROPERTY
Tether
SciTegic.value.DoubleValue
0.000

@<TRIPOS>MOLECULE
guest-2_vm2.mol2 : vm2 ligand conformer 76
          23          22           1
SMALL
USER_CHARGES
 
@<TRIPOS>ATOM
       1    N1      20.466076   19.620769   25.104633 N.4        1 MOL1        -0.5940
       2    H1      19.904430   19.364446   25.922820 H          1 MOL1         0.3649
       3    H2      20.081317   20.495383   24.735694 H          1 MOL1         0.3649
       4    H3      21.411216   19.828107   25.444524 H          1 MOL1         0.3649
       5    C1      20.471891   18.522259   24.059396 C.3        1 MOL1         0.0207
       6    H4      20.927231   17.638344   24.514207 H          1 MOL1         0.0950
       7    H5      21.110694   18.845165   23.235175 H          1 MOL1         0.0950
       8    C2      19.067878   18.156367   23.533681 C.3        1 MOL1        -0.1415
       9    H6      19.132542   17.260159   22.902946 H          1 MOL1         0.0976
      10    H7      18.445923   17.872936   24.393144 H          1 MOL1         0.0976
      11    C3      18.357575   19.293328   22.752595 C.3        1 MOL1        -0.1375
      12    H8      18.525729   20.260961   23.242655 H          1 MOL1         0.0976
      13    H9      17.274878   19.118428   22.819948 H          1 MOL1         0.0976
      14    C4      18.713190   19.396794   21.244691 C.3        1 MOL1        -0.1375
      15    H10     18.427029   18.470782   20.727144 H          1 MOL1         0.0976
      16    H11     18.076019   20.180713   20.812281 H          1 MOL1         0.0976
      17    C5      20.187278   19.752848   20.926117 C.3        1 MOL1        -0.1350
      18    H12     20.630858   20.327971   21.749901 H          1 MOL1         0.0976
      19    H13     20.205846   20.421026   20.053672 H          1 MOL1         0.0976
      20    C6      21.052112   18.514635   20.592888 C.3        1 MOL1        -0.2365
      21    H14     20.681452   18.012803   19.689637 H          1 MOL1         0.0987
      22    H15     21.052322   17.779788   21.405347 H          1 MOL1         0.0987
      23    H16     22.092640   18.809985   20.405964 H          1 MOL1         0.0987
@<TRIPOS>BOND
    1     1     2    1
    2     1     3    1
    3     1     4    1
    4     1     5    1
    5     5     6    1
    6     5     7    1
    7     5     8    1
    8     8     9    1
    9     8    10    1
   10     8    11    1
   11    11    12    1
   12    11    13    1
   13    11    14    1
   14    14    15    1
   15    14    16    1
   16    14    17    1
   17    17    18    1
   18    17    19    1
   19    17    20    1
   20    20    21    1
   21    20    22    1
   22    20    23    1
@<TRIPOS>SUBSTRUCTURE
       1 MOL1            1 RESIDUE      1      MOL     
@<SCITEGIC>MOL_PROPERTY
VM2 Rank
SciTegic.value.IntegerValue
76

@<SCITEGIC>MOL_PROPERTY
Conf_Id
SciTegic.value.IntegerValue
362

@<SCITEGIC>MOL_PROPERTY
Probability
SciTegic.value.DoubleValue
0.00

@<SCITEGIC>MOL_PROPERTY
Sum Probability
SciTegic.value.DoubleValue
100.00

@<SCITEGIC>MOL_PROPERTY
Delta G
SciTegic.value.DoubleValue
6.253

@<SCITEGIC>MOL_PROPERTY
G
SciTegic.value.DoubleValue
44.169

@<SCITEGIC>MOL_PROPERTY
E
SciTegic.value.DoubleValue
15.699

@<SCITEGIC>MOL_PROPERTY
-TS
SciTegic.value.DoubleValue
28.471

@<SCITEGIC>MOL_PROPERTY
U+W
SciTegic.value.DoubleValue
-3.080

@<SCITEGIC>MOL_PROPERTY
U
SciTegic.value.DoubleValue
53.200

@<SCITEGIC>MOL_PROPERTY
W
SciTegic.value.DoubleValue
-56.281

@<SCITEGIC>MOL_PROPERTY
W(PB)
SciTegic.value.DoubleValue
-58.316

@<SCITEGIC>MOL_PROPERTY
W(SA)
SciTegic.value.DoubleValue
2.035

@<SCITEGIC>MOL_PROPERTY
Valence
SciTegic.value.DoubleValue
6.810

@<SCITEGIC>MOL_PROPERTY
Coulomb
SciTegic.value.DoubleValue
46.000

@<SCITEGIC>MOL_PROPERTY
VdW
SciTegic.value.DoubleValue
0.390

@<SCITEGIC>MOL_PROPERTY
VdW6
SciTegic.value.DoubleValue
-8.050

@<SCITEGIC>MOL_PROPERTY
VdW12
SciTegic.value.DoubleValue
8.440

@<SCITEGIC>MOL_PROPERTY
Bond
SciTegic.value.DoubleValue
0.260

@<SCITEGIC>MOL_PROPERTY
Angle
SciTegic.value.DoubleValue
1.891

@<SCITEGIC>MOL_PROPERTY
Pdih
SciTegic.value.DoubleValue
4.659

@<SCITEGIC>MOL_PROPERTY
Idih
SciTegic.value.DoubleValue
0.000

@<SCITEGIC>MOL_PROPERTY
Tether
SciTegic.value.DoubleValue
0.000

@<TRIPOS>MOLECULE
guest-2_vm2.mol2 : vm2 ligand conformer 77
          23          22           1
SMALL
USER_CHARGES
 
@<TRIPOS>ATOM
       1    N1      20.691103   18.519746   24.967450 N.4        1 MOL1        -0.5940
       2    H1      20.996674   18.477421   25.945628 H          1 MOL1         0.3649
       3    H2      21.234939   19.260006   24.513720 H          1 MOL1         0.3649
       4    H3      20.957914   17.631596   24.531220 H          1 MOL1         0.3649
       5    C1      19.202320   18.776888   24.854624 C.3        1 MOL1         0.0207
       6    H4      18.984173   19.716759   25.368805 H          1 MOL1         0.0950
       7    H5      18.688435   17.973015   25.388686 H          1 MOL1         0.0950
       8    C2      18.669403   18.846691   23.407756 C.3        1 MOL1        -0.1415
       9    H6      18.859302   17.896463   22.894607 H          1 MOL1         0.0976
      10    H7      17.577433   18.946724   23.465033 H          1 MOL1         0.0976
      11    C3      19.226945   20.044957   22.593357 C.3        1 MOL1        -0.1375
      12    H8      19.370968   20.897284   23.271834 H          1 MOL1         0.0976
      13    H9      18.468860   20.376316   21.870378 H          1 MOL1         0.0976
      14    C4      20.553437   19.758332   21.837775 C.3        1 MOL1        -0.1375
      15    H10     21.154655   20.678083   21.838368 H          1 MOL1         0.0976
      16    H11     21.153928   19.008241   22.365766 H          1 MOL1         0.0976
      17    C5      20.364836   19.322964   20.362259 C.3        1 MOL1        -0.1350
      18    H12     21.355133   19.229825   19.894877 H          1 MOL1         0.0976
      19    H13     19.840413   20.113999   19.808158 H          1 MOL1         0.0976
      20    C6      19.607955   17.987422   20.190778 C.3        1 MOL1        -0.2365
      21    H14     18.567211   18.071836   20.527390 H          1 MOL1         0.0987
      22    H15     20.093300   17.182127   20.757054 H          1 MOL1         0.0987
      23    H16     19.588963   17.689974   19.134357 H          1 MOL1         0.0987
@<TRIPOS>BOND
    1     1     2    1
    2     1     3    1
    3     1     4    1
    4     1     5    1
    5     5     6    1
    6     5     7    1
    7     5     8    1
    8     8     9    1
    9     8    10    1
   10     8    11    1
   11    11    12    1
   12    11    13    1
   13    11    14    1
   14    14    15    1
   15    14    16    1
   16    14    17    1
   17    17    18    1
   18    17    19    1
   19    17    20    1
   20    20    21    1
   21    20    22    1
   22    20    23    1
@<TRIPOS>SUBSTRUCTURE
       1 MOL1            1 RESIDUE      1      MOL     
@<SCITEGIC>MOL_PROPERTY
VM2 Rank
SciTegic.value.IntegerValue
77

@<SCITEGIC>MOL_PROPERTY
Conf_Id
SciTegic.value.IntegerValue
574

@<SCITEGIC>MOL_PROPERTY
Probability
SciTegic.value.DoubleValue
0.00

@<SCITEGIC>MOL_PROPERTY
Sum Probability
SciTegic.value.DoubleValue
100.00

@<SCITEGIC>MOL_PROPERTY
Delta G
SciTegic.value.DoubleValue
6.275

@<SCITEGIC>MOL_PROPERTY
G
SciTegic.value.DoubleValue
44.191

@<SCITEGIC>MOL_PROPERTY
E
SciTegic.value.DoubleValue
16.072

@<SCITEGIC>MOL_PROPERTY
-TS
SciTegic.value.DoubleValue
28.119

@<SCITEGIC>MOL_PROPERTY
U+W
SciTegic.value.DoubleValue
-2.707

@<SCITEGIC>MOL_PROPERTY
U
SciTegic.value.DoubleValue
53.344

@<SCITEGIC>MOL_PROPERTY
W
SciTegic.value.DoubleValue
-56.051

@<SCITEGIC>MOL_PROPERTY
W(PB)
SciTegic.value.DoubleValue
-58.096

@<SCITEGIC>MOL_PROPERTY
W(SA)
SciTegic.value.DoubleValue
2.045

@<SCITEGIC>MOL_PROPERTY
Valence
SciTegic.value.DoubleValue
6.531

@<SCITEGIC>MOL_PROPERTY
Coulomb
SciTegic.value.DoubleValue
46.150

@<SCITEGIC>MOL_PROPERTY
VdW
SciTegic.value.DoubleValue
0.663

@<SCITEGIC>MOL_PROPERTY
VdW6
SciTegic.value.DoubleValue
-7.490

@<SCITEGIC>MOL_PROPERTY
VdW12
SciTegic.value.DoubleValue
8.153

@<SCITEGIC>MOL_PROPERTY
Bond
SciTegic.value.DoubleValue
0.263

@<SCITEGIC>MOL_PROPERTY
Angle
SciTegic.value.DoubleValue
1.395

@<SCITEGIC>MOL_PROPERTY
Pdih
SciTegic.value.DoubleValue
4.874

@<SCITEGIC>MOL_PROPERTY
Idih
SciTegic.value.DoubleValue
0.000

@<SCITEGIC>MOL_PROPERTY
Tether
SciTegic.value.DoubleValue
0.000

@<TRIPOS>MOLECULE
guest-2_vm2.mol2 : vm2 ligand conformer 78
          23          22           1
SMALL
USER_CHARGES
 
@<TRIPOS>ATOM
       1    N1      19.288092   17.936105   24.903627 N.4        1 MOL1        -0.5940
       2    H1      18.417370   18.087906   24.385541 H          1 MOL1         0.3649
       3    H2      19.027825   17.658336   25.856046 H          1 MOL1         0.3649
       4    H3      19.763428   17.134725   24.476850 H          1 MOL1         0.3649
       5    C1      20.159779   19.175241   24.898262 C.3        1 MOL1         0.0207
       6    H4      21.048280   18.954775   25.496152 H          1 MOL1         0.0950
       7    H5      19.607607   19.976146   25.397246 H          1 MOL1         0.0950
       8    C2      20.596505   19.648447   23.495536 C.3        1 MOL1        -0.1415
       9    H6      21.287659   20.490365   23.633977 H          1 MOL1         0.0976
      10    H7      21.175814   18.860221   23.000138 H          1 MOL1         0.0976
      11    C3      19.419818   20.125150   22.602171 C.3        1 MOL1        -0.1375
      12    H8      19.773240   20.919078   21.929891 H          1 MOL1         0.0976
      13    H9      18.662565   20.602394   23.239620 H          1 MOL1         0.0976
      14    C4      18.750449   19.008072   21.755580 C.3        1 MOL1        -0.1375
      15    H10     18.819223   18.036716   22.259307 H          1 MOL1         0.0976
      16    H11     17.677162   19.231059   21.679858 H          1 MOL1         0.0976
      17    C5      19.305560   18.882222   20.313955 C.3        1 MOL1        -0.1350
      18    H12     19.156398   19.829429   19.776987 H          1 MOL1         0.0976
      19    H13     18.712789   18.130352   19.774401 H          1 MOL1         0.0976
      20    C6      20.795797   18.481763   20.244869 C.3        1 MOL1        -0.2365
      21    H14     21.101695   18.319535   19.203251 H          1 MOL1         0.0987
      22    H15     20.981551   17.551784   20.797466 H          1 MOL1         0.0987
      23    H16     21.440288   19.267441   20.658299 H          1 MOL1         0.0987
@<TRIPOS>BOND
    1     1     2    1
    2     1     3    1
    3     1     4    1
    4     1     5    1
    5     5     6    1
    6     5     7    1
    7     5     8    1
    8     8     9    1
    9     8    10    1
   10     8    11    1
   11    11    12    1
   12    11    13    1
   13    11    14    1
   14    14    15    1
   15    14    16    1
   16    14    17    1
   17    17    18    1
   18    17    19    1
   19    17    20    1
   20    20    21    1
   21    20    22    1
   22    20    23    1
@<TRIPOS>SUBSTRUCTURE
       1 MOL1            1 RESIDUE      1      MOL     
@<SCITEGIC>MOL_PROPERTY
VM2 Rank
SciTegic.value.IntegerValue
78

@<SCITEGIC>MOL_PROPERTY
Conf_Id
SciTegic.value.IntegerValue
681

@<SCITEGIC>MOL_PROPERTY
Probability
SciTegic.value.DoubleValue
0.00

@<SCITEGIC>MOL_PROPERTY
Sum Probability
SciTegic.value.DoubleValue
100.00

@<SCITEGIC>MOL_PROPERTY
Delta G
SciTegic.value.DoubleValue
6.281

@<SCITEGIC>MOL_PROPERTY
G
SciTegic.value.DoubleValue
44.197

@<SCITEGIC>MOL_PROPERTY
E
SciTegic.value.DoubleValue
16.077

@<SCITEGIC>MOL_PROPERTY
-TS
SciTegic.value.DoubleValue
28.120

@<SCITEGIC>MOL_PROPERTY
U+W
SciTegic.value.DoubleValue
-2.702

@<SCITEGIC>MOL_PROPERTY
U
SciTegic.value.DoubleValue
53.344

@<SCITEGIC>MOL_PROPERTY
W
SciTegic.value.DoubleValue
-56.045

@<SCITEGIC>MOL_PROPERTY
W(PB)
SciTegic.value.DoubleValue
-58.067

@<SCITEGIC>MOL_PROPERTY
W(SA)
SciTegic.value.DoubleValue
2.021

@<SCITEGIC>MOL_PROPERTY
Valence
SciTegic.value.DoubleValue
6.531

@<SCITEGIC>MOL_PROPERTY
Coulomb
SciTegic.value.DoubleValue
46.150

@<SCITEGIC>MOL_PROPERTY
VdW
SciTegic.value.DoubleValue
0.663

@<SCITEGIC>MOL_PROPERTY
VdW6
SciTegic.value.DoubleValue
-7.490

@<SCITEGIC>MOL_PROPERTY
VdW12
SciTegic.value.DoubleValue
8.153

@<SCITEGIC>MOL_PROPERTY
Bond
SciTegic.value.DoubleValue
0.263

@<SCITEGIC>MOL_PROPERTY
Angle
SciTegic.value.DoubleValue
1.395

@<SCITEGIC>MOL_PROPERTY
Pdih
SciTegic.value.DoubleValue
4.874

@<SCITEGIC>MOL_PROPERTY
Idih
SciTegic.value.DoubleValue
0.000

@<SCITEGIC>MOL_PROPERTY
Tether
SciTegic.value.DoubleValue
0.000

@<TRIPOS>MOLECULE
guest-2_vm2.mol2 : vm2 ligand conformer 79
          23          22           1
SMALL
USER_CHARGES
 
@<TRIPOS>ATOM
       1    N1      19.269940   17.593387   24.068562 N.4        1 MOL1        -0.5940
       2    H1      18.434652   17.031409   24.265486 H          1 MOL1         0.3649
       3    H2      20.053011   17.145033   24.555176 H          1 MOL1         0.3649
       4    H3      19.455656   17.525769   23.062774 H          1 MOL1         0.3649
       5    C1      19.092775   19.035959   24.501302 C.3        1 MOL1         0.0207
       6    H4      18.901359   19.025180   25.577757 H          1 MOL1         0.0950
       7    H5      18.209380   19.444979   24.003866 H          1 MOL1         0.0950
       8    C2      20.316137   19.930971   24.216592 C.3        1 MOL1        -0.1415
       9    H6      20.262041   20.794846   24.892338 H          1 MOL1         0.0976
      10    H7      21.237103   19.397676   24.487316 H          1 MOL1         0.0976
      11    C3      20.418191   20.471006   22.764678 C.3        1 MOL1        -0.1375
      12    H8      21.295606   21.131102   22.720850 H          1 MOL1         0.0976
      13    H9      19.555686   21.114563   22.542436 H          1 MOL1         0.0976
      14    C4      20.575589   19.390092   21.664629 C.3        1 MOL1        -0.1375
      15    H10     21.243540   19.781058   20.884421 H          1 MOL1         0.0976
      16    H11     21.083342   18.505744   22.071867 H          1 MOL1         0.0976
      17    C5      19.235071   19.004601   20.992687 C.3        1 MOL1        -0.1350
      18    H12     18.837540   19.875170   20.452118 H          1 MOL1         0.0976
      19    H13     18.478147   18.743119   21.741671 H          1 MOL1         0.0976
      20    C6      19.408297   17.830985   20.005549 C.3        1 MOL1        -0.2365
      21    H14     20.122954   18.086190   19.212135 H          1 MOL1         0.0987
      22    H15     18.451635   17.581841   19.528157 H          1 MOL1         0.0987
      23    H16     19.773869   16.930988   20.516559 H          1 MOL1         0.0987
@<TRIPOS>BOND
    1     1     2    1
    2     1     3    1
    3     1     4    1
    4     1     5    1
    5     5     6    1
    6     5     7    1
    7     5     8    1
    8     8     9    1
    9     8    10    1
   10     8    11    1
   11    11    12    1
   12    11    13    1
   13    11    14    1
   14    14    15    1
   15    14    16    1
   16    14    17    1
   17    17    18    1
   18    17    19    1
   19    17    20    1
   20    20    21    1
   21    20    22    1
   22    20    23    1
@<TRIPOS>SUBSTRUCTURE
       1 MOL1            1 RESIDUE      1      MOL     
@<SCITEGIC>MOL_PROPERTY
VM2 Rank
SciTegic.value.IntegerValue
79

@<SCITEGIC>MOL_PROPERTY
Conf_Id
SciTegic.value.IntegerValue
640

@<SCITEGIC>MOL_PROPERTY
Probability
SciTegic.value.DoubleValue
0.00

@<SCITEGIC>MOL_PROPERTY
Sum Probability
SciTegic.value.DoubleValue
100.00

@<SCITEGIC>MOL_PROPERTY
Delta G
SciTegic.value.DoubleValue
6.772

@<SCITEGIC>MOL_PROPERTY
G
SciTegic.value.DoubleValue
44.688

@<SCITEGIC>MOL_PROPERTY
E
SciTegic.value.DoubleValue
16.391

@<SCITEGIC>MOL_PROPERTY
-TS
SciTegic.value.DoubleValue
28.298

@<SCITEGIC>MOL_PROPERTY
U+W
SciTegic.value.DoubleValue
-2.389

@<SCITEGIC>MOL_PROPERTY
U
SciTegic.value.DoubleValue
52.836

@<SCITEGIC>MOL_PROPERTY
W
SciTegic.value.DoubleValue
-55.224

@<SCITEGIC>MOL_PROPERTY
W(PB)
SciTegic.value.DoubleValue
-57.261

@<SCITEGIC>MOL_PROPERTY
W(SA)
SciTegic.value.DoubleValue
2.037

@<SCITEGIC>MOL_PROPERTY
Valence
SciTegic.value.DoubleValue
5.785

@<SCITEGIC>MOL_PROPERTY
Coulomb
SciTegic.value.DoubleValue
46.744

@<SCITEGIC>MOL_PROPERTY
VdW
SciTegic.value.DoubleValue
0.307

@<SCITEGIC>MOL_PROPERTY
VdW6
SciTegic.value.DoubleValue
-7.671

@<SCITEGIC>MOL_PROPERTY
VdW12
SciTegic.value.DoubleValue
7.978

@<SCITEGIC>MOL_PROPERTY
Bond
SciTegic.value.DoubleValue
0.217

@<SCITEGIC>MOL_PROPERTY
Angle
SciTegic.value.DoubleValue
1.469

@<SCITEGIC>MOL_PROPERTY
Pdih
SciTegic.value.DoubleValue
4.099

@<SCITEGIC>MOL_PROPERTY
Idih
SciTegic.value.DoubleValue
0.000

@<SCITEGIC>MOL_PROPERTY
Tether
SciTegic.value.DoubleValue
0.000

@<TRIPOS>MOLECULE
guest-2_vm2.mol2 : vm2 ligand conformer 80
          23          22           1
SMALL
USER_CHARGES
 
@<TRIPOS>ATOM
       1    N1      21.011225   18.317877   24.147916 N.4        1 MOL1        -0.5940
       2    H1      21.980141   18.506570   24.427024 H          1 MOL1         0.3649
       3    H2      21.006737   18.171080   23.133470 H          1 MOL1         0.3649
       4    H3      20.741360   17.431453   24.586597 H          1 MOL1         0.3649
       5    C1      20.080560   19.446963   24.546276 C.3        1 MOL1         0.0207
       6    H4      20.449533   20.377028   24.105861 H          1 MOL1         0.0950
       7    H5      20.139070   19.540217   25.634114 H          1 MOL1         0.0950
       8    C2      18.610268   19.221215   24.138841 C.3        1 MOL1        -0.1415
       9    H6      18.320525   18.184178   24.354425 H          1 MOL1         0.0976
      10    H7      17.984133   19.847089   24.788513 H          1 MOL1         0.0976
      11    C3      18.268815   19.576689   22.666713 C.3        1 MOL1        -0.1375
      12    H8      18.435647   20.648552   22.491359 H          1 MOL1         0.0976
      13    H9      17.188999   19.422379   22.533708 H          1 MOL1         0.0976
      14    C4      19.009072   18.738302   21.593223 C.3        1 MOL1        -0.1375
      15    H10     19.247317   17.741814   21.988162 H          1 MOL1         0.0976
      16    H11     18.323961   18.566303   20.751334 H          1 MOL1         0.0976
      17    C5      20.274995   19.437295   21.040104 C.3        1 MOL1        -0.1350
      18    H12     20.933267   19.764667   21.853607 H          1 MOL1         0.0976
      19    H13     19.979488   20.350307   20.504174 H          1 MOL1         0.0976
      20    C6      21.061065   18.518659   20.080927 C.3        1 MOL1        -0.2365
      21    H14     21.402096   17.608455   20.590824 H          1 MOL1         0.0987
      22    H15     21.945970   19.035731   19.687533 H          1 MOL1         0.0987
      23    H16     20.440370   18.218259   19.226605 H          1 MOL1         0.0987
@<TRIPOS>BOND
    1     1     2    1
    2     1     3    1
    3     1     4    1
    4     1     5    1
    5     5     6    1
    6     5     7    1
    7     5     8    1
    8     8     9    1
    9     8    10    1
   10     8    11    1
   11    11    12    1
   12    11    13    1
   13    11    14    1
   14    14    15    1
   15    14    16    1
   16    14    17    1
   17    17    18    1
   18    17    19    1
   19    17    20    1
   20    20    21    1
   21    20    22    1
   22    20    23    1
@<TRIPOS>SUBSTRUCTURE
       1 MOL1            1 RESIDUE      1      MOL     
@<SCITEGIC>MOL_PROPERTY
VM2 Rank
SciTegic.value.IntegerValue
80

@<SCITEGIC>MOL_PROPERTY
Conf_Id
SciTegic.value.IntegerValue
257

@<SCITEGIC>MOL_PROPERTY
Probability
SciTegic.value.DoubleValue
0.00

@<SCITEGIC>MOL_PROPERTY
Sum Probability
SciTegic.value.DoubleValue
100.00

@<SCITEGIC>MOL_PROPERTY
Delta G
SciTegic.value.DoubleValue
6.865

@<SCITEGIC>MOL_PROPERTY
G
SciTegic.value.DoubleValue
44.782

@<SCITEGIC>MOL_PROPERTY
E
SciTegic.value.DoubleValue
16.484

@<SCITEGIC>MOL_PROPERTY
-TS
SciTegic.value.DoubleValue
28.298

@<SCITEGIC>MOL_PROPERTY
U+W
SciTegic.value.DoubleValue
-2.295

@<SCITEGIC>MOL_PROPERTY
U
SciTegic.value.DoubleValue
52.836

@<SCITEGIC>MOL_PROPERTY
W
SciTegic.value.DoubleValue
-55.131

@<SCITEGIC>MOL_PROPERTY
W(PB)
SciTegic.value.DoubleValue
-57.202

@<SCITEGIC>MOL_PROPERTY
W(SA)
SciTegic.value.DoubleValue
2.071

@<SCITEGIC>MOL_PROPERTY
Valence
SciTegic.value.DoubleValue
5.785

@<SCITEGIC>MOL_PROPERTY
Coulomb
SciTegic.value.DoubleValue
46.744

@<SCITEGIC>MOL_PROPERTY
VdW
SciTegic.value.DoubleValue
0.307

@<SCITEGIC>MOL_PROPERTY
VdW6
SciTegic.value.DoubleValue
-7.672

@<SCITEGIC>MOL_PROPERTY
VdW12
SciTegic.value.DoubleValue
7.979

@<SCITEGIC>MOL_PROPERTY
Bond
SciTegic.value.DoubleValue
0.217

@<SCITEGIC>MOL_PROPERTY
Angle
SciTegic.value.DoubleValue
1.470

@<SCITEGIC>MOL_PROPERTY
Pdih
SciTegic.value.DoubleValue
4.098

@<SCITEGIC>MOL_PROPERTY
Idih
SciTegic.value.DoubleValue
0.000

@<SCITEGIC>MOL_PROPERTY
Tether
SciTegic.value.DoubleValue
0.000

@<TRIPOS>MOLECULE
guest-2_vm2.mol2 : vm2 ligand conformer 81
          23          22           1
SMALL
USER_CHARGES
 
@<TRIPOS>ATOM
       1    N1      19.023141   17.855582   24.479416 N.4        1 MOL1        -0.5940
       2    H1      19.255163   17.456172   23.565148 H          1 MOL1         0.3649
       3    H2      18.096710   17.502479   24.742559 H          1 MOL1         0.3649
       4    H3      19.691127   17.474046   25.157041 H          1 MOL1         0.3649
       5    C1      19.060127   19.371090   24.448186 C.3        1 MOL1         0.0207
       6    H4      18.809264   19.717092   25.454594 H          1 MOL1         0.0950
       7    H5      18.285228   19.726911   23.763989 H          1 MOL1         0.0950
       8    C2      20.427609   19.956023   24.041049 C.3        1 MOL1        -0.1415
       9    H6      20.487993   20.975102   24.445600 H          1 MOL1         0.0976
      10    H7      21.234312   19.393002   24.528993 H          1 MOL1         0.0976
      11    C3      20.679498   20.038705   22.511804 C.3        1 MOL1        -0.1375
      12    H8      21.652337   20.528193   22.365870 H          1 MOL1         0.0976
      13    H9      19.943419   20.711082   22.053202 H          1 MOL1         0.0976
      14    C4      20.714446   18.675563   21.769854 C.3        1 MOL1        -0.1375
      15    H10     21.479460   18.721488   20.982320 H          1 MOL1         0.0976
      16    H11     21.056657   17.889477   22.455864 H          1 MOL1         0.0976
      17    C5      19.370065   18.266332   21.113751 C.3        1 MOL1        -0.1350
      18    H12     18.542253   18.356585   21.827467 H          1 MOL1         0.0976
      19    H13     19.422834   17.205613   20.830834 H          1 MOL1         0.0976
      20    C6      19.041114   19.093705   19.849939 C.3        1 MOL1        -0.2365
      21    H14     18.904991   20.156532   20.083903 H          1 MOL1         0.0987
      22    H15     18.112592   18.735267   19.386989 H          1 MOL1         0.0987
      23    H16     19.841032   19.008407   19.103028 H          1 MOL1         0.0987
@<TRIPOS>BOND
    1     1     2    1
    2     1     3    1
    3     1     4    1
    4     1     5    1
    5     5     6    1
    6     5     7    1
    7     5     8    1
    8     8     9    1
    9     8    10    1
   10     8    11    1
   11    11    12    1
   12    11    13    1
   13    11    14    1
   14    14    15    1
   15    14    16    1
   16    14    17    1
   17    17    18    1
   18    17    19    1
   19    17    20    1
   20    20    21    1
   21    20    22    1
   22    20    23    1
@<TRIPOS>SUBSTRUCTURE
       1 MOL1            1 RESIDUE      1      MOL     
@<SCITEGIC>MOL_PROPERTY
VM2 Rank
SciTegic.value.IntegerValue
81

@<SCITEGIC>MOL_PROPERTY
Conf_Id
SciTegic.value.IntegerValue
678

@<SCITEGIC>MOL_PROPERTY
Probability
SciTegic.value.DoubleValue
0.00

@<SCITEGIC>MOL_PROPERTY
Sum Probability
SciTegic.value.DoubleValue
100.00

@<SCITEGIC>MOL_PROPERTY
Delta G
SciTegic.value.DoubleValue
6.934

@<SCITEGIC>MOL_PROPERTY
G
SciTegic.value.DoubleValue
44.850

@<SCITEGIC>MOL_PROPERTY
E
SciTegic.value.DoubleValue
16.564

@<SCITEGIC>MOL_PROPERTY
-TS
SciTegic.value.DoubleValue
28.286

@<SCITEGIC>MOL_PROPERTY
U+W
SciTegic.value.DoubleValue
-2.215

@<SCITEGIC>MOL_PROPERTY
U
SciTegic.value.DoubleValue
53.835

@<SCITEGIC>MOL_PROPERTY
W
SciTegic.value.DoubleValue
-56.050

@<SCITEGIC>MOL_PROPERTY
W(PB)
SciTegic.value.DoubleValue
-58.079

@<SCITEGIC>MOL_PROPERTY
W(SA)
SciTegic.value.DoubleValue
2.029

@<SCITEGIC>MOL_PROPERTY
Valence
SciTegic.value.DoubleValue
6.520

@<SCITEGIC>MOL_PROPERTY
Coulomb
SciTegic.value.DoubleValue
46.847

@<SCITEGIC>MOL_PROPERTY
VdW
SciTegic.value.DoubleValue
0.468

@<SCITEGIC>MOL_PROPERTY
VdW6
SciTegic.value.DoubleValue
-7.907

@<SCITEGIC>MOL_PROPERTY
VdW12
SciTegic.value.DoubleValue
8.375

@<SCITEGIC>MOL_PROPERTY
Bond
SciTegic.value.DoubleValue
0.262

@<SCITEGIC>MOL_PROPERTY
Angle
SciTegic.value.DoubleValue
1.644

@<SCITEGIC>MOL_PROPERTY
Pdih
SciTegic.value.DoubleValue
4.614

@<SCITEGIC>MOL_PROPERTY
Idih
SciTegic.value.DoubleValue
0.000

@<SCITEGIC>MOL_PROPERTY
Tether
SciTegic.value.DoubleValue
0.000

@<TRIPOS>MOLECULE
guest-2_vm2.mol2 : vm2 ligand conformer 82
          23          22           1
SMALL
USER_CHARGES
 
@<TRIPOS>ATOM
       1    N1      19.624516   17.574665   24.381891 N.4        1 MOL1        -0.5940
       2    H1      19.094457   17.439036   23.516790 H          1 MOL1         0.3649
       3    H2      19.134779   17.061000   25.122472 H          1 MOL1         0.3649
       4    H3      20.534220   17.119789   24.255214 H          1 MOL1         0.3649
       5    C1      19.776650   19.043936   24.724189 C.3        1 MOL1         0.0207
       6    H4      20.358832   19.095584   25.648247 H          1 MOL1         0.0950
       7    H5      18.786106   19.461001   24.924545 H          1 MOL1         0.0950
       8    C2      20.486293   19.876833   23.636606 C.3        1 MOL1        -0.1415
       9    H6      20.971521   20.724271   24.138735 H          1 MOL1         0.0976
      10    H7      21.303456   19.298897   23.194007 H          1 MOL1         0.0976
      11    C3      19.540475   20.463102   22.552399 C.3        1 MOL1        -0.1375
      12    H8      20.116275   21.124078   21.890219 H          1 MOL1         0.0976
      13    H9      18.821295   21.118222   23.063402 H          1 MOL1         0.0976
      14    C4      18.734429   19.454443   21.688307 C.3        1 MOL1        -0.1375
      15    H10     18.323038   18.645212   22.300109 H          1 MOL1         0.0976
      16    H11     17.854063   19.989097   21.305295 H          1 MOL1         0.0976
      17    C5      19.477653   18.881206   20.453722 C.3        1 MOL1        -0.1350
      18    H12     19.812909   19.705031   19.808292 H          1 MOL1         0.0976
      19    H13     18.754924   18.307122   19.857051 H          1 MOL1         0.0976
      20    C6      20.675983   17.962816   20.776886 C.3        1 MOL1        -0.2365
      21    H14     21.529797   18.536962   21.153129 H          1 MOL1         0.0987
      22    H15     21.013605   17.446558   19.868892 H          1 MOL1         0.0987
      23    H16     20.408316   17.196849   21.514525 H          1 MOL1         0.0987
@<TRIPOS>BOND
    1     1     2    1
    2     1     3    1
    3     1     4    1
    4     1     5    1
    5     5     6    1
    6     5     7    1
    7     5     8    1
    8     8     9    1
    9     8    10    1
   10     8    11    1
   11    11    12    1
   12    11    13    1
   13    11    14    1
   14    14    15    1
   15    14    16    1
   16    14    17    1
   17    17    18    1
   18    17    19    1
   19    17    20    1
   20    20    21    1
   21    20    22    1
   22    20    23    1
@<TRIPOS>SUBSTRUCTURE
       1 MOL1            1 RESIDUE      1      MOL     
@<SCITEGIC>MOL_PROPERTY
VM2 Rank
SciTegic.value.IntegerValue
82

@<SCITEGIC>MOL_PROPERTY
Conf_Id
SciTegic.value.IntegerValue
729

@<SCITEGIC>MOL_PROPERTY
Probability
SciTegic.value.DoubleValue
0.00

@<SCITEGIC>MOL_PROPERTY
Sum Probability
SciTegic.value.DoubleValue
100.00

@<SCITEGIC>MOL_PROPERTY
Delta G
SciTegic.value.DoubleValue
7.062

@<SCITEGIC>MOL_PROPERTY
G
SciTegic.value.DoubleValue
44.978

@<SCITEGIC>MOL_PROPERTY
E
SciTegic.value.DoubleValue
17.241

@<SCITEGIC>MOL_PROPERTY
-TS
SciTegic.value.DoubleValue
27.737

@<SCITEGIC>MOL_PROPERTY
U+W
SciTegic.value.DoubleValue
-1.538

@<SCITEGIC>MOL_PROPERTY
U
SciTegic.value.DoubleValue
54.309

@<SCITEGIC>MOL_PROPERTY
W
SciTegic.value.DoubleValue
-55.847

@<SCITEGIC>MOL_PROPERTY
W(PB)
SciTegic.value.DoubleValue
-57.846

@<SCITEGIC>MOL_PROPERTY
W(SA)
SciTegic.value.DoubleValue
1.999

@<SCITEGIC>MOL_PROPERTY
Valence
SciTegic.value.DoubleValue
6.918

@<SCITEGIC>MOL_PROPERTY
Coulomb
SciTegic.value.DoubleValue
47.202

@<SCITEGIC>MOL_PROPERTY
VdW
SciTegic.value.DoubleValue
0.189

@<SCITEGIC>MOL_PROPERTY
VdW6
SciTegic.value.DoubleValue
-7.842

@<SCITEGIC>MOL_PROPERTY
VdW12
SciTegic.value.DoubleValue
8.031

@<SCITEGIC>MOL_PROPERTY
Bond
SciTegic.value.DoubleValue
0.291

@<SCITEGIC>MOL_PROPERTY
Angle
SciTegic.value.DoubleValue
2.810

@<SCITEGIC>MOL_PROPERTY
Pdih
SciTegic.value.DoubleValue
3.817

@<SCITEGIC>MOL_PROPERTY
Idih
SciTegic.value.DoubleValue
0.000

@<SCITEGIC>MOL_PROPERTY
Tether
SciTegic.value.DoubleValue
0.000

@<TRIPOS>MOLECULE
guest-2_vm2.mol2 : vm2 ligand conformer 83
          23          22           1
SMALL
USER_CHARGES
 
@<TRIPOS>ATOM
       1    N1      20.967038   18.664749   24.568010 N.4        1 MOL1        -0.5940
       2    H1      20.716040   17.900646   25.203699 H          1 MOL1         0.3649
       3    H2      21.846718   19.063462   24.913538 H          1 MOL1         0.3649
       4    H3      21.158111   18.248329   23.651855 H          1 MOL1         0.3649
       5    C1      19.870043   19.708224   24.485105 C.3        1 MOL1         0.0207
       6    H4      20.214763   20.530115   23.851964 H          1 MOL1         0.0950
       7    H5      19.722915   20.097383   25.496249 H          1 MOL1         0.0950
       8    C2      18.527843   19.165240   23.954454 C.3        1 MOL1        -0.1415
       9    H6      18.322774   18.181083   24.396305 H          1 MOL1         0.0976
      10    H7      17.732278   19.828040   24.319970 H          1 MOL1         0.0976
      11    C3      18.411146   19.094460   22.408411 C.3        1 MOL1        -0.1375
      12    H8      18.486865   20.104767   21.986788 H          1 MOL1         0.0976
      13    H9      17.393200   18.755213   22.171752 H          1 MOL1         0.0976
      14    C4      19.409740   18.132458   21.710395 C.3        1 MOL1        -0.1375
      15    H10     19.673242   17.313607   22.392817 H          1 MOL1         0.0976
      16    H11     18.901569   17.648385   20.864819 H          1 MOL1         0.0976
      17    C5      20.693716   18.817371   21.174117 C.3        1 MOL1        -0.1350
      18    H12     21.430038   18.041200   20.922441 H          1 MOL1         0.0976
      19    H13     21.155150   19.444419   21.946581 H          1 MOL1         0.0976
      20    C6      20.436473   19.674497   19.913508 C.3        1 MOL1        -0.2365
      21    H14     21.377706   20.094491   19.535831 H          1 MOL1         0.0987
      22    H15     19.760877   20.512733   20.122792 H          1 MOL1         0.0987
      23    H16     19.993728   19.071760   19.109950 H          1 MOL1         0.0987
@<TRIPOS>BOND
    1     1     2    1
    2     1     3    1
    3     1     4    1
    4     1     5    1
    5     5     6    1
    6     5     7    1
    7     5     8    1
    8     8     9    1
    9     8    10    1
   10     8    11    1
   11    11    12    1
   12    11    13    1
   13    11    14    1
   14    14    15    1
   15    14    16    1
   16    14    17    1
   17    17    18    1
   18    17    19    1
   19    17    20    1
   20    20    21    1
   21    20    22    1
   22    20    23    1
@<TRIPOS>SUBSTRUCTURE
       1 MOL1            1 RESIDUE      1      MOL     
@<SCITEGIC>MOL_PROPERTY
VM2 Rank
SciTegic.value.IntegerValue
83

@<SCITEGIC>MOL_PROPERTY
Conf_Id
SciTegic.value.IntegerValue
168

@<SCITEGIC>MOL_PROPERTY
Probability
SciTegic.value.DoubleValue
0.00

@<SCITEGIC>MOL_PROPERTY
Sum Probability
SciTegic.value.DoubleValue
100.00

@<SCITEGIC>MOL_PROPERTY
Delta G
SciTegic.value.DoubleValue
7.089

@<SCITEGIC>MOL_PROPERTY
G
SciTegic.value.DoubleValue
45.005

@<SCITEGIC>MOL_PROPERTY
E
SciTegic.value.DoubleValue
16.718

@<SCITEGIC>MOL_PROPERTY
-TS
SciTegic.value.DoubleValue
28.286

@<SCITEGIC>MOL_PROPERTY
U+W
SciTegic.value.DoubleValue
-2.061

@<SCITEGIC>MOL_PROPERTY
U
SciTegic.value.DoubleValue
53.835

@<SCITEGIC>MOL_PROPERTY
W
SciTegic.value.DoubleValue
-55.896

@<SCITEGIC>MOL_PROPERTY
W(PB)
SciTegic.value.DoubleValue
-57.909

@<SCITEGIC>MOL_PROPERTY
W(SA)
SciTegic.value.DoubleValue
2.013

@<SCITEGIC>MOL_PROPERTY
Valence
SciTegic.value.DoubleValue
6.519

@<SCITEGIC>MOL_PROPERTY
Coulomb
SciTegic.value.DoubleValue
46.847

@<SCITEGIC>MOL_PROPERTY
VdW
SciTegic.value.DoubleValue
0.469

@<SCITEGIC>MOL_PROPERTY
VdW6
SciTegic.value.DoubleValue
-7.907

@<SCITEGIC>MOL_PROPERTY
VdW12
SciTegic.value.DoubleValue
8.375

@<SCITEGIC>MOL_PROPERTY
Bond
SciTegic.value.DoubleValue
0.262

@<SCITEGIC>MOL_PROPERTY
Angle
SciTegic.value.DoubleValue
1.644

@<SCITEGIC>MOL_PROPERTY
Pdih
SciTegic.value.DoubleValue
4.614

@<SCITEGIC>MOL_PROPERTY
Idih
SciTegic.value.DoubleValue
0.000

@<SCITEGIC>MOL_PROPERTY
Tether
SciTegic.value.DoubleValue
0.000

