@<TRIPOS>MOLECULE
CD_guest-s22_fast_vm2_single.mol2 : feprocess host+ligand conformer 1
         146         151           2
SMALL
USER_CHARGES
 
@<TRIPOS>ATOM
       1    C1      16.286172   15.368288   20.260850 C.3        1 MOL1         0.2972
       2    H1      15.299122   15.273705   19.790494 H          1 MOL1         0.0751
       3    O1      16.493943   16.698352   20.778840 O.3        1 MOL1        -0.3740
       4    C2      16.478495   14.312538   21.382803 C.3        1 MOL1         0.1003
       5    H2      16.419147   13.328504   20.899790 H          1 MOL1         0.0783
       6    O2      15.450969   14.389862   22.382049 O.3        1 MOL1        -0.5519
       7    H3      15.571977   15.255250   22.848156 H          1 MOL1         0.3769
       8    C3      17.882850   14.430217   22.027748 C.3        1 MOL1         0.1053
       9    H4      17.930788   15.369367   22.597149 H          1 MOL1         0.0783
      10    O3      18.078132   13.312592   22.900943 O.3        1 MOL1        -0.5519
      11    H5      17.305160   13.314983   23.505641 H          1 MOL1         0.3769
      12    C4      19.006573   14.457759   20.957748 C.3        1 MOL1         0.1018
      13    H6      19.161137   13.432654   20.597341 H          1 MOL1         0.0783
      14    C5      18.678785   15.377851   19.746185 C.3        1 MOL1         0.1043
      15    H7      18.752359   16.419823   20.077674 H          1 MOL1         0.0783
      16    O4      17.326349   15.121124   19.288207 O.3        1 MOL1        -0.3740
      17    C6      19.648005   15.231609   18.542813 C.3        1 MOL1         0.0138
      18    H8      20.458801   15.960033   18.659455 H          1 MOL1         0.0794
      19    H9      19.110685   15.507259   17.625591 H          1 MOL1         0.0794
      20    O5      20.203240   13.916642   18.410599 O.3        1 MOL1        -0.5486
      21    H10     20.812082   13.777930   19.172988 H          1 MOL1         0.3769
      22    C7      14.906931   20.222924   22.120966 C.3        1 MOL1         0.2972
      23    H11     14.309631   21.061910   22.500788 H          1 MOL1         0.0751
      24    O6      16.216301   20.664698   21.704767 O.3        1 MOL1        -0.3740
      25    C8      15.041762   19.139566   23.221773 C.3        1 MOL1         0.1003
      26    H12     14.031829   18.770271   23.441092 H          1 MOL1         0.0783
      27    O7      15.608729   19.691151   24.422247 O.3        1 MOL1        -0.5519
      28    H13     16.526796   19.324970   24.514015 H          1 MOL1         0.3769
      29    C9      15.883496   17.952333   22.706876 C.3        1 MOL1         0.1053
      30    H14     16.893594   18.334559   22.539627 H          1 MOL1         0.0783
      31    O8      15.927288   16.907558   23.685880 O.3        1 MOL1        -0.5519
      32    H15     16.636156   17.185686   24.323640 H          1 MOL1         0.3769
      33    C10     15.372789   17.403239   21.352247 C.3        1 MOL1         0.1018
      34    H16     14.507276   16.750564   21.525173 H          1 MOL1         0.0783
      35    C11     15.012276   18.531983   20.344986 C.3        1 MOL1         0.1043
      36    H17     15.960463   18.933719   19.971322 H          1 MOL1         0.0783
      37    O9      14.267968   19.607461   20.979734 O.3        1 MOL1        -0.3740
      38    C12     14.213835   18.031254   19.117996 C.3        1 MOL1         0.0138
      39    H18     14.878099   17.412994   18.499182 H          1 MOL1         0.0794
      40    H19     13.917489   18.897686   18.511694 H          1 MOL1         0.0794
      41    O10     13.060118   17.272776   19.499899 O.3        1 MOL1        -0.5486
      42    H20     12.563069   17.052674   18.681921 H          1 MOL1         0.3769
      43    C13     18.439168   23.943549   20.580532 C.3        1 MOL1         0.2972
      44    H21     18.860878   24.877697   20.188046 H          1 MOL1         0.0751
      45    O11     19.476147   23.015433   20.963691 O.3        1 MOL1        -0.3740
      46    C14     17.501917   24.210699   21.785754 C.3        1 MOL1         0.1003
      47    H22     16.667947   24.818577   21.411330 H          1 MOL1         0.0783
      48    O12     18.165311   24.936139   22.831533 O.3        1 MOL1        -0.5519
      49    H23     18.896233   24.355593   23.162777 H          1 MOL1         0.3769
      50    C15     16.911967   22.884885   22.328100 C.3        1 MOL1         0.1053
      51    H24     17.725941   22.310168   22.792244 H          1 MOL1         0.0783
      52    O13     15.913413   23.196773   23.304981 O.3        1 MOL1        -0.5519
      53    H25     16.340687   23.830888   23.921083 H          1 MOL1         0.3769
      54    C16     16.289712   22.015421   21.200449 C.3        1 MOL1         0.1018
      55    H26     15.296397   22.419882   20.967610 H          1 MOL1         0.0783
      56    C17     17.145695   21.978467   19.898428 C.3        1 MOL1         0.1043
      57    H27     18.005130   21.328047   20.081297 H          1 MOL1         0.0783
      58    O14     17.622885   23.307972   19.573458 O.3        1 MOL1        -0.3740
      59    C18     16.425619   21.401916   18.650092 C.3        1 MOL1         0.0138
      60    H28     16.674859   20.337556   18.564363 H          1 MOL1         0.0794
      61    H29     16.838731   21.886080   17.755033 H          1 MOL1         0.0794
      62    O15     15.001837   21.567755   18.680085 O.3        1 MOL1        -0.5486
      63    H30     14.655266   21.016930   19.420042 H          1 MOL1         0.3769
      64    C19     23.515057   22.686298   21.909556 C.3        1 MOL1         0.2972
      65    H31     24.562048   22.871549   22.181903 H          1 MOL1         0.0751
      66    O16     23.300884   21.315302   21.524491 O.3        1 MOL1        -0.3740
      67    C20     22.586226   23.018271   23.104931 C.3        1 MOL1         0.1003
      68    H32     22.725486   24.082045   23.337682 H          1 MOL1         0.0783
      69    O17     22.922313   22.237992   24.263861 O.3        1 MOL1        -0.5519
      70    H33     23.612257   21.585469   23.987706 H          1 MOL1         0.3769
      71    C21     21.101243   22.804986   22.729862 C.3        1 MOL1         0.1053
      72    H34     20.945090   21.730828   22.568140 H          1 MOL1         0.0783
      73    O18     20.285011   23.253881   23.815704 O.3        1 MOL1        -0.5519
      74    H35     20.702453   22.861588   24.615512 H          1 MOL1         0.3769
      75    C22     20.731664   23.556506   21.423886 C.3        1 MOL1         0.1018
      76    H36     20.660950   24.630742   21.639954 H          1 MOL1         0.0783
      77    C23     21.776085   23.309362   20.297859 C.3        1 MOL1         0.1043
      78    H37     21.677227   22.267228   19.967225 H          1 MOL1         0.0783
      79    O19     23.121653   23.522411   20.800373 O.3        1 MOL1        -0.3740
      80    C24     21.567081   24.203572   19.052925 C.3        1 MOL1         0.0138
      81    H38     20.662476   23.864192   18.530189 H          1 MOL1         0.0794
      82    H39     22.413620   24.054772   18.369319 H          1 MOL1         0.0794
      83    O20     21.439225   25.589202   19.396759 O.3        1 MOL1        -0.5486
      84    H40     21.388432   26.100342   18.559859 H          1 MOL1         0.3769
      85    C25     25.105536   17.635765   21.134389 C.3        1 MOL1         0.2972
      86    H41     25.745062   16.764166   20.944358 H          1 MOL1         0.0751
      87    O21     23.733257   17.253201   21.374067 O.3        1 MOL1        -0.3740
      88    C26     25.618141   18.459385   22.343628 C.3        1 MOL1         0.1003
      89    H42     26.600116   18.864586   22.066316 H          1 MOL1         0.0783
      90    O22     25.770637   17.651403   23.519116 O.3        1 MOL1        -0.5519
      91    H43     24.899466   17.211041   23.688706 H          1 MOL1         0.3769
      92    C27     24.671103   19.654709   22.610956 C.3        1 MOL1         0.1053
      93    H44     23.692192   19.258164   22.915642 H          1 MOL1         0.0783
      94    O23     25.212478   20.464666   23.659004 O.3        1 MOL1        -0.5519
      95    H45     25.550148   19.824630   24.325905 H          1 MOL1         0.3769
      96    C28     24.475536   20.505763   21.328582 C.3        1 MOL1         0.1018
      97    H46     25.371577   21.119438   21.172436 H          1 MOL1         0.0783
      98    C29     24.220826   19.648486   20.054421 C.3        1 MOL1         0.1043
      99    H47     23.197422   19.259121   20.092998 H          1 MOL1         0.0783
     100    O24     25.135232   18.525539   19.998138 O.3        1 MOL1        -0.3740
     101    C30     24.344152   20.458832   18.740981 C.3        1 MOL1         0.0138
     102    H48     23.494572   21.151539   18.679086 H          1 MOL1         0.0794
     103    H49     24.259419   19.763922   17.895258 H          1 MOL1         0.0794
     104    O25     25.571242   21.194031   18.652124 O.3        1 MOL1        -0.5486
     105    H50     25.471769   22.000898   19.201100 H          1 MOL1         0.3769
     106    C31     21.192983   14.020920   21.948132 C.3        1 MOL1         0.2972
     107    H51     20.747764   13.034132   22.129704 H          1 MOL1         0.0751
     108    O26     20.187771   14.986795   21.592140 O.3        1 MOL1        -0.3740
     109    C32     21.946449   14.494573   23.217000 C.3        1 MOL1         0.1003
     110    H52     22.751748   13.770694   23.396600 H          1 MOL1         0.0783
     111    O27     21.087004   14.517267   24.365943 O.3        1 MOL1        -0.5519
     112    H53     20.428622   15.253398   24.226178 H          1 MOL1         0.3769
     113    C33     22.597509   15.878091   22.995294 C.3        1 MOL1         0.1053
     114    H54     21.799072   16.617281   22.861446 H          1 MOL1         0.0783
     115    O28     23.372947   16.214539   24.149007 O.3        1 MOL1        -0.5519
     116    H55     22.773469   16.041237   24.909650 H          1 MOL1         0.3769
     117    C34     23.484845   15.876173   21.724626 C.3        1 MOL1         0.1018
     118    H56     24.412856   15.331520   21.943534 H          1 MOL1         0.0783
     119    C35     22.764201   15.234169   20.505181 C.3        1 MOL1         0.1043
     120    H57     21.984114   15.935651   20.186280 H          1 MOL1         0.0783
     121    O29     22.146286   13.967391   20.863010 O.3        1 MOL1        -0.3740
     122    C36     23.698552   15.002480   19.293829 C.3        1 MOL1         0.0138
     123    H58     23.972915   15.980112   18.874366 H          1 MOL1         0.0794
     124    H59     23.142505   14.459047   18.518150 H          1 MOL1         0.0794
     125    O30     24.882192   14.281251   19.657965 O.3        1 MOL1        -0.5486
     126    H60     25.393696   14.114175   18.836528 H          1 MOL1         0.3769
     127    C1      21.261317   20.220713   17.382205 C.2        1 MOL1        -0.2535
     128    H1      21.801403   19.293283   17.200534 H          1 MOL1         0.0845
     129    H2      21.486073   21.066952   16.735695 H          1 MOL1         0.0845
     130    C2      20.354499   20.319254   18.356700 C.2        1 MOL1        -0.1324
     131    H3      19.823707   21.256682   18.518407 H          1 MOL1         0.0833
     132    C3      19.989250   19.189070   19.292809 C.3        1 MOL1        -0.1813
     133    H4      20.562181   18.285719   19.049121 H          1 MOL1         0.0753
     134    H5      18.927989   18.942074   19.158071 H          1 MOL1         0.0753
     135    C4      20.235222   19.570530   20.767196 C.3        1 MOL1        -0.1855
     136    H6      21.299851   19.745002   20.944382 H          1 MOL1         0.0755
     137    H7      19.725950   20.509679   20.992732 H          1 MOL1         0.0755
     138    C5      19.722638   18.491291   21.733700 C.3        1 MOL1        -0.1855
     139    H8      20.295664   17.569617   21.591386 H          1 MOL1         0.0755
     140    H9      18.684603   18.255908   21.482700 H          1 MOL1         0.0755
     141    C6      19.807440   18.943823   23.214036 C.3        1 MOL1        -0.1958
     142    H10     20.854855   19.053283   23.517989 H          1 MOL1         0.0753
     143    H11     19.330584   19.924504   23.333290 H          1 MOL1         0.0753
     144    C7      19.130350   17.976426   24.181859 C.2        1 MOL1         0.6174
     145    O1      19.567130   16.845593   24.264052 O.co2      1 MOL1        -0.6695
     146    O2      18.121732   18.352194   24.752780 O.co2      1 MOL1        -0.6695
@<TRIPOS>BOND
    1     1     2    1
    2     1     3    1
    3     1     4    1
    4     4     5    1
    5     4     6    1
    6     6     7    1
    7     4     8    1
    8     8     9    1
    9     8    10    1
   10    10    11    1
   11     8    12    1
   12    12    13    1
   13    12    14    1
   14    14    15    1
   15     1    16    1
   16    14    16    1
   17    14    17    1
   18    17    18    1
   19    17    19    1
   20    17    20    1
   21    20    21    1
   22    22    23    1
   23    22    24    1
   24    22    25    1
   25    25    26    1
   26    25    27    1
   27    27    28    1
   28    25    29    1
   29    29    30    1
   30    29    31    1
   31    31    32    1
   32     3    33    1
   33    29    33    1
   34    33    34    1
   35    33    35    1
   36    35    36    1
   37    22    37    1
   38    35    37    1
   39    35    38    1
   40    38    39    1
   41    38    40    1
   42    38    41    1
   43    41    42    1
   44    43    44    1
   45    43    45    1
   46    43    46    1
   47    46    47    1
   48    46    48    1
   49    48    49    1
   50    46    50    1
   51    50    51    1
   52    50    52    1
   53    52    53    1
   54    24    54    1
   55    50    54    1
   56    54    55    1
   57    54    56    1
   58    56    57    1
   59    43    58    1
   60    56    58    1
   61    56    59    1
   62    59    60    1
   63    59    61    1
   64    59    62    1
   65    62    63    1
   66    64    65    1
   67    64    66    1
   68    64    67    1
   69    67    68    1
   70    67    69    1
   71    69    70    1
   72    67    71    1
   73    71    72    1
   74    71    73    1
   75    73    74    1
   76    45    75    1
   77    71    75    1
   78    75    76    1
   79    75    77    1
   80    77    78    1
   81    64    79    1
   82    77    79    1
   83    77    80    1
   84    80    81    1
   85    80    82    1
   86    80    83    1
   87    83    84    1
   88    85    86    1
   89    85    87    1
   90    85    88    1
   91    88    89    1
   92    88    90    1
   93    90    91    1
   94    88    92    1
   95    92    93    1
   96    92    94    1
   97    94    95    1
   98    66    96    1
   99    92    96    1
  100    96    97    1
  101    96    98    1
  102    98    99    1
  103    85   100    1
  104    98   100    1
  105    98   101    1
  106   101   102    1
  107   101   103    1
  108   101   104    1
  109   104   105    1
  110   106   107    1
  111    12   108    1
  112   106   108    1
  113   106   109    1
  114   109   110    1
  115   109   111    1
  116   111   112    1
  117   109   113    1
  118   113   114    1
  119   113   115    1
  120   115   116    1
  121    87   117    1
  122   113   117    1
  123   117   118    1
  124   117   119    1
  125   119   120    1
  126   106   121    1
  127   119   121    1
  128   119   122    1
  129   122   123    1
  130   122   124    1
  131   122   125    1
  132   125   126    1
  133   127   128    1
  134   127   129    1
  135   127   130    2
  136   130   131    1
  137   130   132    1
  138   132   133    1
  139   132   134    1
  140   132   135    1
  141   135   136    1
  142   135   137    1
  143   135   138    1
  144   138   139    1
  145   138   140    1
  146   138   141    1
  147   141   142    1
  148   141   143    1
  149   141   144    1
  150   144   145    1
  151   144   146    2
@<TRIPOS>SUBSTRUCTURE
       1 MOL1            1 RESIDUE      1      MOL     
       2 MOL1          146 RESIDUE      1      MOL     
@<SCITEGIC>MOL_PROPERTY
feprocess Rank
SciTegic.value.IntegerValue
1

@<SCITEGIC>MOL_PROPERTY
Conf_Id
SciTegic.value.IntegerValue
1

@<SCITEGIC>MOL_PROPERTY
Probability
SciTegic.value.DoubleValue
100.00

@<SCITEGIC>MOL_PROPERTY
G
SciTegic.value.DoubleValue
504.305

@<SCITEGIC>MOL_PROPERTY
E
SciTegic.value.DoubleValue
314.576

@<SCITEGIC>MOL_PROPERTY
-TS
SciTegic.value.DoubleValue
189.728

@<SCITEGIC>MOL_PROPERTY
U+W
SciTegic.value.DoubleValue
185.805

@<SCITEGIC>MOL_PROPERTY
U
SciTegic.value.DoubleValue
255.030

@<SCITEGIC>MOL_PROPERTY
W
SciTegic.value.DoubleValue
-69.225

@<SCITEGIC>MOL_PROPERTY
W(PB)
SciTegic.value.DoubleValue
-75.210

@<SCITEGIC>MOL_PROPERTY
W(SA)
SciTegic.value.DoubleValue
5.985

@<SCITEGIC>MOL_PROPERTY
Valence
SciTegic.value.DoubleValue
155.996

@<SCITEGIC>MOL_PROPERTY
Coulomb
SciTegic.value.DoubleValue
124.518

@<SCITEGIC>MOL_PROPERTY
VdW
SciTegic.value.DoubleValue
-25.485

@<SCITEGIC>MOL_PROPERTY
VdW6
SciTegic.value.DoubleValue
-189.167

@<SCITEGIC>MOL_PROPERTY
VdW12
SciTegic.value.DoubleValue
163.682

@<SCITEGIC>MOL_PROPERTY
Bond
SciTegic.value.DoubleValue
5.286

@<SCITEGIC>MOL_PROPERTY
Angle
SciTegic.value.DoubleValue
15.206

@<SCITEGIC>MOL_PROPERTY
Pdih
SciTegic.value.DoubleValue
135.483

@<SCITEGIC>MOL_PROPERTY
Idih
SciTegic.value.DoubleValue
0.022

@<SCITEGIC>MOL_PROPERTY
Tether
SciTegic.value.DoubleValue
0.000

