@<TRIPOS>MOLECULE
guest-s21_confgen4.mol2 : confsearch ligand conformer 1
          22          21           1
SMALL
USER_CHARGES
 
@<TRIPOS>ATOM
       1    C1      19.826765   19.116270   26.207032 C.2        1 MOL1         0.6145
       2    O1      20.550737   20.092840   26.231012 O.co2      1 MOL1        -0.6735
       3    O2      19.399801   18.582167   27.211202 O.co2      1 MOL1        -0.6735
       4    C2      19.416793   18.508166   24.864773 C.3        1 MOL1        -0.1985
       5    H1      18.321120   18.509018   24.826441 H          1 MOL1         0.0740
       6    H2      19.736949   17.459621   24.869419 H          1 MOL1         0.0740
       7    C3      19.985899   19.224679   23.611323 C.3        1 MOL1        -0.1882
       8    H3      19.666613   20.276117   23.616114 H          1 MOL1         0.0742
       9    H4      21.083721   19.225612   23.659026 H          1 MOL1         0.0742
      10    C4      19.523320   18.547229   22.303043 C.3        1 MOL1        -0.1880
      11    H5      18.425564   18.547486   22.257623 H          1 MOL1         0.0742
      12    H6      19.843518   17.496230   22.300620 H          1 MOL1         0.0742
      13    C5      20.090611   19.261450   21.057501 C.3        1 MOL1        -0.1880
      14    H7      19.770716   20.312540   21.059511 H          1 MOL1         0.0742
      15    H8      21.188383   19.261412   21.102464 H          1 MOL1         0.0742
      16    C6      19.628697   18.585027   19.749758 C.3        1 MOL1        -0.1856
      17    H9      18.530960   18.585034   19.700268 H          1 MOL1         0.0742
      18    H10     19.948641   17.533805   19.743260 H          1 MOL1         0.0742
      19    C7      20.197377   19.301173   18.508357 C.3        1 MOL1        -0.2871
      20    H11     19.866898   20.347559   18.472762 H          1 MOL1         0.0754
      21    H12     19.859138   18.807451   17.588072 H          1 MOL1         0.0754
      22    H13     21.295187   19.288393   18.516041 H          1 MOL1         0.0754
@<TRIPOS>BOND
    1     1     2    1
    2     1     3    2
    3     1     4    1
    4     4     5    1
    5     4     6    1
    6     4     7    1
    7     7     8    1
    8     7     9    1
    9     7    10    1
   10    10    11    1
   11    10    12    1
   12    10    13    1
   13    13    14    1
   14    13    15    1
   15    13    16    1
   16    16    17    1
   17    16    18    1
   18    16    19    1
   19    19    20    1
   20    19    21    1
   21    19    22    1
@<TRIPOS>SUBSTRUCTURE
       1 MOL1            1 RESIDUE      1      MOL     
@<SCITEGIC>MOL_PROPERTY
VConf Rank
SciTegic.value.IntegerValue
1

@<SCITEGIC>MOL_PROPERTY
Conf_Id
SciTegic.value.IntegerValue
0

@<SCITEGIC>MOL_PROPERTY
Delta U+W
SciTegic.value.DoubleValue
0.000

@<SCITEGIC>MOL_PROPERTY
U+W
SciTegic.value.DoubleValue
-53.159

@<SCITEGIC>MOL_PROPERTY
Grad RMS
SciTegic.value.DoubleValue
0.000000

@<SCITEGIC>MOL_PROPERTY
U
SciTegic.value.DoubleValue
6.763

@<SCITEGIC>MOL_PROPERTY
W
SciTegic.value.DoubleValue
-59.922

@<SCITEGIC>MOL_PROPERTY
W(PB)
SciTegic.value.DoubleValue
-62.256

@<SCITEGIC>MOL_PROPERTY
W(SA)
SciTegic.value.DoubleValue
2.334

@<SCITEGIC>MOL_PROPERTY
Valence
SciTegic.value.DoubleValue
7.600

@<SCITEGIC>MOL_PROPERTY
Coulomb
SciTegic.value.DoubleValue
-2.139

@<SCITEGIC>MOL_PROPERTY
VdW
SciTegic.value.DoubleValue
1.302

@<SCITEGIC>MOL_PROPERTY
VdW6
SciTegic.value.DoubleValue
-6.786

@<SCITEGIC>MOL_PROPERTY
VdW12
SciTegic.value.DoubleValue
8.088

@<SCITEGIC>MOL_PROPERTY
Bond
SciTegic.value.DoubleValue
0.134

@<SCITEGIC>MOL_PROPERTY
Angle
SciTegic.value.DoubleValue
2.720

@<SCITEGIC>MOL_PROPERTY
Pdih
SciTegic.value.DoubleValue
4.746

@<SCITEGIC>MOL_PROPERTY
Idih
SciTegic.value.DoubleValue
0.000

@<SCITEGIC>MOL_PROPERTY
Tether
SciTegic.value.DoubleValue
0.000

@<TRIPOS>MOLECULE
guest-s21_confgen4.mol2 : confsearch ligand conformer 2
          22          21           1
SMALL
USER_CHARGES
 
@<TRIPOS>ATOM
       1    C1      19.833140   19.133407   26.187506 C.2        1 MOL1         0.6145
       2    O1      20.081005   20.231957   26.643775 O.co2      1 MOL1        -0.6735
       3    O2      20.156721   18.092745   26.724859 O.co2      1 MOL1        -0.6735
       4    C2      19.094898   19.056802   24.855837 C.3        1 MOL1        -0.1985
       5    H1      18.414100   19.914318   24.793842 H          1 MOL1         0.0740
       6    H2      18.476208   18.151342   24.860839 H          1 MOL1         0.0740
       7    C3      20.050961   19.044193   23.637708 C.3        1 MOL1        -0.1882
       8    H3      20.672106   19.950541   23.654524 H          1 MOL1         0.0742
       9    H4      20.734211   18.187619   23.721517 H          1 MOL1         0.0742
      10    C4      19.279715   18.966283   22.302422 C.3        1 MOL1        -0.1880
      11    H5      18.596793   19.823244   22.222379 H          1 MOL1         0.0742
      12    H6      18.658876   18.059882   22.289405 H          1 MOL1         0.0742
      13    C5      20.235307   18.953839   21.089993 C.3        1 MOL1        -0.1880
      14    H7      20.856339   19.860087   21.102656 H          1 MOL1         0.0742
      15    H8      20.918415   18.097018   21.169668 H          1 MOL1         0.0742
      16    C6      19.465241   18.875991   19.755075 C.3        1 MOL1        -0.1856
      17    H9      18.782219   19.732646   19.670810 H          1 MOL1         0.0742
      18    H10     18.844277   17.969579   19.737822 H          1 MOL1         0.0742
      19    C7      20.423011   18.863783   18.546825 C.3        1 MOL1        -0.2871
      20    H11     21.097547   17.998550   18.589022 H          1 MOL1         0.0754
      21    H12     21.035143   19.774862   18.521612 H          1 MOL1         0.0754
      22    H13     19.859045   18.808292   17.606636 H          1 MOL1         0.0754
@<TRIPOS>BOND
    1     1     2    1
    2     1     3    2
    3     1     4    1
    4     4     5    1
    5     4     6    1
    6     4     7    1
    7     7     8    1
    8     7     9    1
    9     7    10    1
   10    10    11    1
   11    10    12    1
   12    10    13    1
   13    13    14    1
   14    13    15    1
   15    13    16    1
   16    16    17    1
   17    16    18    1
   18    16    19    1
   19    19    20    1
   20    19    21    1
   21    19    22    1
@<TRIPOS>SUBSTRUCTURE
       1 MOL1            1 RESIDUE      1      MOL     
@<SCITEGIC>MOL_PROPERTY
VConf Rank
SciTegic.value.IntegerValue
2

@<SCITEGIC>MOL_PROPERTY
Conf_Id
SciTegic.value.IntegerValue
10

@<SCITEGIC>MOL_PROPERTY
Delta U+W
SciTegic.value.DoubleValue
-1.291

@<SCITEGIC>MOL_PROPERTY
U+W
SciTegic.value.DoubleValue
-54.451

@<SCITEGIC>MOL_PROPERTY
Grad RMS
SciTegic.value.DoubleValue
0.000000

@<SCITEGIC>MOL_PROPERTY
U
SciTegic.value.DoubleValue
5.779

@<SCITEGIC>MOL_PROPERTY
W
SciTegic.value.DoubleValue
-60.230

@<SCITEGIC>MOL_PROPERTY
W(PB)
SciTegic.value.DoubleValue
-62.557

@<SCITEGIC>MOL_PROPERTY
W(SA)
SciTegic.value.DoubleValue
2.328

@<SCITEGIC>MOL_PROPERTY
Valence
SciTegic.value.DoubleValue
7.101

@<SCITEGIC>MOL_PROPERTY
Coulomb
SciTegic.value.DoubleValue
-2.079

@<SCITEGIC>MOL_PROPERTY
VdW
SciTegic.value.DoubleValue
0.757

@<SCITEGIC>MOL_PROPERTY
VdW6
SciTegic.value.DoubleValue
-6.496

@<SCITEGIC>MOL_PROPERTY
VdW12
SciTegic.value.DoubleValue
7.253

@<SCITEGIC>MOL_PROPERTY
Bond
SciTegic.value.DoubleValue
0.100

@<SCITEGIC>MOL_PROPERTY
Angle
SciTegic.value.DoubleValue
2.262

@<SCITEGIC>MOL_PROPERTY
Pdih
SciTegic.value.DoubleValue
4.738

@<SCITEGIC>MOL_PROPERTY
Idih
SciTegic.value.DoubleValue
0.001

@<SCITEGIC>MOL_PROPERTY
Tether
SciTegic.value.DoubleValue
0.000

@<TRIPOS>MOLECULE
guest-s21_confgen4.mol2 : confsearch ligand conformer 3
          22          21           1
SMALL
USER_CHARGES
 
@<TRIPOS>ATOM
       1    C1      19.982604   19.092724   26.099951 C.2        1 MOL1         0.6145
       2    O1      20.695225   19.984871   26.515520 O.co2      1 MOL1        -0.6735
       3    O2      19.035561   18.645563   26.716078 O.co2      1 MOL1        -0.6735
       4    C2      20.280474   18.516956   24.720106 C.3        1 MOL1        -0.1985
       5    H1      19.997282   17.457508   24.724517 H          1 MOL1         0.0740
       6    H2      21.364250   18.562176   24.558730 H          1 MOL1         0.0740
       7    C3      19.539295   19.263481   23.583663 C.3        1 MOL1        -0.1882
       8    H3      18.456746   19.220323   23.767339 H          1 MOL1         0.0742
       9    H4      19.823841   20.324753   23.600584 H          1 MOL1         0.0742
      10    C4      19.857400   18.661837   22.197597 C.3        1 MOL1        -0.1880
      11    H5      19.570028   17.601621   22.182951 H          1 MOL1         0.0742
      12    H6      20.941148   18.703408   22.027517 H          1 MOL1         0.0742
      13    C5      19.118080   19.412803   21.066352 C.3        1 MOL1        -0.1880
      14    H7      18.042096   19.423081   21.287906 H          1 MOL1         0.0742
      15    H8      19.441512   20.462518   21.045761 H          1 MOL1         0.0742
      16    C6      19.325718   18.780360   19.670569 C.3        1 MOL1        -0.1856
      17    H9      18.678214   19.297858   18.949341 H          1 MOL1         0.0742
      18    H10     18.997358   17.731902   19.685597 H          1 MOL1         0.0742
      19    C7      20.785644   18.860406   19.174164 C.3        1 MOL1        -0.2871
      20    H11     20.863118   18.480559   18.147210 H          1 MOL1         0.0754
      21    H12     21.455795   18.259599   19.801564 H          1 MOL1         0.0754
      22    H13     21.146034   19.897339   19.179036 H          1 MOL1         0.0754
@<TRIPOS>BOND
    1     1     2    1
    2     1     3    2
    3     1     4    1
    4     4     5    1
    5     4     6    1
    6     4     7    1
    7     7     8    1
    8     7     9    1
    9     7    10    1
   10    10    11    1
   11    10    12    1
   12    10    13    1
   13    13    14    1
   14    13    15    1
   15    13    16    1
   16    16    17    1
   17    16    18    1
   18    16    19    1
   19    19    20    1
   20    19    21    1
   21    19    22    1
@<TRIPOS>SUBSTRUCTURE
       1 MOL1            1 RESIDUE      1      MOL     
@<SCITEGIC>MOL_PROPERTY
VConf Rank
SciTegic.value.IntegerValue
3

@<SCITEGIC>MOL_PROPERTY
Conf_Id
SciTegic.value.IntegerValue
37

@<SCITEGIC>MOL_PROPERTY
Delta U+W
SciTegic.value.DoubleValue
-0.345

@<SCITEGIC>MOL_PROPERTY
U+W
SciTegic.value.DoubleValue
-53.504

@<SCITEGIC>MOL_PROPERTY
Grad RMS
SciTegic.value.DoubleValue
0.000000

@<SCITEGIC>MOL_PROPERTY
U
SciTegic.value.DoubleValue
6.751

@<SCITEGIC>MOL_PROPERTY
W
SciTegic.value.DoubleValue
-60.255

@<SCITEGIC>MOL_PROPERTY
W(PB)
SciTegic.value.DoubleValue
-62.592

@<SCITEGIC>MOL_PROPERTY
W(SA)
SciTegic.value.DoubleValue
2.336

@<SCITEGIC>MOL_PROPERTY
Valence
SciTegic.value.DoubleValue
7.602

@<SCITEGIC>MOL_PROPERTY
Coulomb
SciTegic.value.DoubleValue
-1.744

@<SCITEGIC>MOL_PROPERTY
VdW
SciTegic.value.DoubleValue
0.894

@<SCITEGIC>MOL_PROPERTY
VdW6
SciTegic.value.DoubleValue
-7.110

@<SCITEGIC>MOL_PROPERTY
VdW12
SciTegic.value.DoubleValue
8.004

@<SCITEGIC>MOL_PROPERTY
Bond
SciTegic.value.DoubleValue
0.131

@<SCITEGIC>MOL_PROPERTY
Angle
SciTegic.value.DoubleValue
2.489

@<SCITEGIC>MOL_PROPERTY
Pdih
SciTegic.value.DoubleValue
4.982

@<SCITEGIC>MOL_PROPERTY
Idih
SciTegic.value.DoubleValue
0.001

@<SCITEGIC>MOL_PROPERTY
Tether
SciTegic.value.DoubleValue
0.000

@<TRIPOS>MOLECULE
guest-s21_confgen4.mol2 : confsearch ligand conformer 4
          22          21           1
SMALL
USER_CHARGES
 
@<TRIPOS>ATOM
       1    C1      19.763298   19.255315   26.093329 C.2        1 MOL1         0.6145
       2    O1      20.394638   20.207851   26.506290 O.co2      1 MOL1        -0.6735
       3    O2      19.585376   18.237508   26.732759 O.co2      1 MOL1        -0.6735
       4    C2      19.180502   19.332994   24.686728 C.3        1 MOL1        -0.1985
       5    H1      18.916546   20.378026   24.484511 H          1 MOL1         0.0740
       6    H2      18.248957   18.754518   24.671382 H          1 MOL1         0.0740
       7    C3      20.153448   18.808043   23.602312 C.3        1 MOL1        -0.1882
       8    H3      21.085439   19.389081   23.638863 H          1 MOL1         0.0742
       9    H4      20.418293   17.765487   23.826912 H          1 MOL1         0.0742
      10    C4      19.540201   18.897157   22.187979 C.3        1 MOL1        -0.1880
      11    H5      19.272843   19.940773   21.976908 H          1 MOL1         0.0742
      12    H6      18.610018   18.313679   22.153815 H          1 MOL1         0.0742
      13    C5      20.516734   18.375600   21.108801 C.3        1 MOL1        -0.1880
      14    H7      21.427778   18.989545   21.106017 H          1 MOL1         0.0742
      15    H8      20.829478   17.356001   21.372514 H          1 MOL1         0.0742
      16    C6      19.906385   18.349743   19.688197 C.3        1 MOL1        -0.1856
      17    H9      18.998264   17.731180   19.685607 H          1 MOL1         0.0742
      18    H10     20.617087   17.860150   19.008170 H          1 MOL1         0.0742
      19    C7      19.579418   19.754789   19.137605 C.3        1 MOL1        -0.2871
      20    H11     20.466430   20.401245   19.158576 H          1 MOL1         0.0754
      21    H12     18.786080   20.239040   19.720546 H          1 MOL1         0.0754
      22    H13     19.234013   19.688623   18.097779 H          1 MOL1         0.0754
@<TRIPOS>BOND
    1     1     2    1
    2     1     3    2
    3     1     4    1
    4     4     5    1
    5     4     6    1
    6     4     7    1
    7     7     8    1
    8     7     9    1
    9     7    10    1
   10    10    11    1
   11    10    12    1
   12    10    13    1
   13    13    14    1
   14    13    15    1
   15    13    16    1
   16    16    17    1
   17    16    18    1
   18    16    19    1
   19    19    20    1
   20    19    21    1
   21    19    22    1
@<TRIPOS>SUBSTRUCTURE
       1 MOL1            1 RESIDUE      1      MOL     
@<SCITEGIC>MOL_PROPERTY
VConf Rank
SciTegic.value.IntegerValue
4

@<SCITEGIC>MOL_PROPERTY
Conf_Id
SciTegic.value.IntegerValue
38

@<SCITEGIC>MOL_PROPERTY
Delta U+W
SciTegic.value.DoubleValue
-0.439

@<SCITEGIC>MOL_PROPERTY
U+W
SciTegic.value.DoubleValue
-53.598

@<SCITEGIC>MOL_PROPERTY
Grad RMS
SciTegic.value.DoubleValue
0.000000

@<SCITEGIC>MOL_PROPERTY
U
SciTegic.value.DoubleValue
6.751

@<SCITEGIC>MOL_PROPERTY
W
SciTegic.value.DoubleValue
-60.350

@<SCITEGIC>MOL_PROPERTY
W(PB)
SciTegic.value.DoubleValue
-62.659

@<SCITEGIC>MOL_PROPERTY
W(SA)
SciTegic.value.DoubleValue
2.309

@<SCITEGIC>MOL_PROPERTY
Valence
SciTegic.value.DoubleValue
7.602

@<SCITEGIC>MOL_PROPERTY
Coulomb
SciTegic.value.DoubleValue
-1.744

@<SCITEGIC>MOL_PROPERTY
VdW
SciTegic.value.DoubleValue
0.893

@<SCITEGIC>MOL_PROPERTY
VdW6
SciTegic.value.DoubleValue
-7.110

@<SCITEGIC>MOL_PROPERTY
VdW12
SciTegic.value.DoubleValue
8.004

@<SCITEGIC>MOL_PROPERTY
Bond
SciTegic.value.DoubleValue
0.131

@<SCITEGIC>MOL_PROPERTY
Angle
SciTegic.value.DoubleValue
2.489

@<SCITEGIC>MOL_PROPERTY
Pdih
SciTegic.value.DoubleValue
4.981

@<SCITEGIC>MOL_PROPERTY
Idih
SciTegic.value.DoubleValue
0.001

@<SCITEGIC>MOL_PROPERTY
Tether
SciTegic.value.DoubleValue
0.000

@<TRIPOS>MOLECULE
guest-s21_confgen4.mol2 : confsearch ligand conformer 5
          22          21           1
SMALL
USER_CHARGES
 
@<TRIPOS>ATOM
       1    C1      19.711564   19.091315   25.993056 C.2        1 MOL1         0.6145
       2    O1      20.008924   20.062995   26.659371 O.co2      1 MOL1        -0.6735
       3    O2      19.682439   17.958393   26.431427 O.co2      1 MOL1        -0.6735
       4    C2      19.378717   19.302686   24.520363 C.3        1 MOL1        -0.1985
       5    H1      18.913412   20.290042   24.415311 H          1 MOL1         0.0740
       6    H2      18.627027   18.556818   24.239109 H          1 MOL1         0.0740
       7    C3      20.625037   19.198233   23.603091 C.3        1 MOL1        -0.1882
       8    H3      21.393204   19.890529   23.974698 H          1 MOL1         0.0742
       9    H4      21.054189   18.189618   23.679366 H          1 MOL1         0.0742
      10    C4      20.334589   19.532485   22.120311 C.3        1 MOL1        -0.1880
      11    H5      21.292964   19.570360   21.587008 H          1 MOL1         0.0742
      12    H6      19.897963   20.537902   22.048461 H          1 MOL1         0.0742
      13    C5      19.402132   18.507025   21.429676 C.3        1 MOL1        -0.1880
      14    H7      19.838031   17.501395   21.503178 H          1 MOL1         0.0742
      15    H8      18.442259   18.470328   21.960126 H          1 MOL1         0.0742
      16    C6      19.115682   18.839125   19.946513 C.3        1 MOL1        -0.1856
      17    H9      18.690116   19.849057   19.867626 H          1 MOL1         0.0742
      18    H10     18.346218   18.148744   19.574298 H          1 MOL1         0.0742
      19    C7      20.360915   18.726743   19.040192 C.3        1 MOL1        -0.2871
      20    H11     21.113547   19.482805   19.295809 H          1 MOL1         0.0754
      21    H12     20.084387   18.876994   17.988586 H          1 MOL1         0.0754
      22    H13     20.823642   17.735245   19.129299 H          1 MOL1         0.0754
@<TRIPOS>BOND
    1     1     2    1
    2     1     3    2
    3     1     4    1
    4     4     5    1
    5     4     6    1
    6     4     7    1
    7     7     8    1
    8     7     9    1
    9     7    10    1
   10    10    11    1
   11    10    12    1
   12    10    13    1
   13    13    14    1
   14    13    15    1
   15    13    16    1
   16    16    17    1
   17    16    18    1
   18    16    19    1
   19    19    20    1
   20    19    21    1
   21    19    22    1
@<TRIPOS>SUBSTRUCTURE
       1 MOL1            1 RESIDUE      1      MOL     
@<SCITEGIC>MOL_PROPERTY
VConf Rank
SciTegic.value.IntegerValue
5

@<SCITEGIC>MOL_PROPERTY
Conf_Id
SciTegic.value.IntegerValue
60

@<SCITEGIC>MOL_PROPERTY
Delta U+W
SciTegic.value.DoubleValue
0.386

@<SCITEGIC>MOL_PROPERTY
U+W
SciTegic.value.DoubleValue
-52.773

@<SCITEGIC>MOL_PROPERTY
Grad RMS
SciTegic.value.DoubleValue
0.000000

@<SCITEGIC>MOL_PROPERTY
U
SciTegic.value.DoubleValue
7.689

@<SCITEGIC>MOL_PROPERTY
W
SciTegic.value.DoubleValue
-60.463

@<SCITEGIC>MOL_PROPERTY
W(PB)
SciTegic.value.DoubleValue
-62.772

@<SCITEGIC>MOL_PROPERTY
W(SA)
SciTegic.value.DoubleValue
2.309

@<SCITEGIC>MOL_PROPERTY
Valence
SciTegic.value.DoubleValue
8.197

@<SCITEGIC>MOL_PROPERTY
Coulomb
SciTegic.value.DoubleValue
-1.561

@<SCITEGIC>MOL_PROPERTY
VdW
SciTegic.value.DoubleValue
1.053

@<SCITEGIC>MOL_PROPERTY
VdW6
SciTegic.value.DoubleValue
-7.737

@<SCITEGIC>MOL_PROPERTY
VdW12
SciTegic.value.DoubleValue
8.790

@<SCITEGIC>MOL_PROPERTY
Bond
SciTegic.value.DoubleValue
0.181

@<SCITEGIC>MOL_PROPERTY
Angle
SciTegic.value.DoubleValue
2.780

@<SCITEGIC>MOL_PROPERTY
Pdih
SciTegic.value.DoubleValue
5.235

@<SCITEGIC>MOL_PROPERTY
Idih
SciTegic.value.DoubleValue
0.001

@<SCITEGIC>MOL_PROPERTY
Tether
SciTegic.value.DoubleValue
0.000

@<TRIPOS>MOLECULE
guest-s21_confgen4.mol2 : confsearch ligand conformer 6
          22          21           1
SMALL
USER_CHARGES
 
@<TRIPOS>ATOM
       1    C1      19.751495   19.245594   25.986478 C.2        1 MOL1         0.6145
       2    O1      20.295610   20.275174   26.333517 O.co2      1 MOL1        -0.6735
       3    O2      19.542882   18.310140   26.733449 O.co2      1 MOL1        -0.6735
       4    C2      19.327485   19.110990   24.528264 C.3        1 MOL1        -0.1985
       5    H1      19.037591   20.106148   24.173183 H          1 MOL1         0.0740
       6    H2      18.432622   18.478314   24.491450 H          1 MOL1         0.0740
       7    C3      20.443142   18.512441   23.632349 C.3        1 MOL1        -0.1882
       8    H3      21.316479   19.179184   23.637955 H          1 MOL1         0.0742
       9    H4      20.775786   17.562684   24.073661 H          1 MOL1         0.0742
      10    C4      19.994938   18.249564   22.174704 C.3        1 MOL1        -0.1880
      11    H5      19.116910   17.589465   22.173086 H          1 MOL1         0.0742
      12    H6      20.798012   17.700789   21.666525 H          1 MOL1         0.0742
      13    C5      19.677487   19.543686   21.385722 C.3        1 MOL1        -0.1880
      14    H7      18.872390   20.091886   21.891069 H          1 MOL1         0.0742
      15    H8      20.554979   20.204517   21.389036 H          1 MOL1         0.0742
      16    C6      19.233945   19.280662   19.927572 C.3        1 MOL1        -0.1856
      17    H9      18.898983   20.229295   19.485825 H          1 MOL1         0.0742
      18    H10     18.363197   18.610569   19.919449 H          1 MOL1         0.0742
      19    C7      20.353016   18.690750   19.041944 C.3        1 MOL1        -0.2871
      20    H11     21.247137   19.327343   19.062481 H          1 MOL1         0.0754
      21    H12     20.016857   18.614301   17.999796 H          1 MOL1         0.0754
      22    H13     20.638512   17.684386   19.372320 H          1 MOL1         0.0754
@<TRIPOS>BOND
    1     1     2    1
    2     1     3    2
    3     1     4    1
    4     4     5    1
    5     4     6    1
    6     4     7    1
    7     7     8    1
    8     7     9    1
    9     7    10    1
   10    10    11    1
   11    10    12    1
   12    10    13    1
   13    13    14    1
   14    13    15    1
   15    13    16    1
   16    16    17    1
   17    16    18    1
   18    16    19    1
   19    19    20    1
   20    19    21    1
   21    19    22    1
@<TRIPOS>SUBSTRUCTURE
       1 MOL1            1 RESIDUE      1      MOL     
@<SCITEGIC>MOL_PROPERTY
VConf Rank
SciTegic.value.IntegerValue
6

@<SCITEGIC>MOL_PROPERTY
Conf_Id
SciTegic.value.IntegerValue
28

@<SCITEGIC>MOL_PROPERTY
Delta U+W
SciTegic.value.DoubleValue
0.351

@<SCITEGIC>MOL_PROPERTY
U+W
SciTegic.value.DoubleValue
-52.808

@<SCITEGIC>MOL_PROPERTY
Grad RMS
SciTegic.value.DoubleValue
0.000000

@<SCITEGIC>MOL_PROPERTY
U
SciTegic.value.DoubleValue
7.689

@<SCITEGIC>MOL_PROPERTY
W
SciTegic.value.DoubleValue
-60.498

@<SCITEGIC>MOL_PROPERTY
W(PB)
SciTegic.value.DoubleValue
-62.768

@<SCITEGIC>MOL_PROPERTY
W(SA)
SciTegic.value.DoubleValue
2.270

@<SCITEGIC>MOL_PROPERTY
Valence
SciTegic.value.DoubleValue
8.197

@<SCITEGIC>MOL_PROPERTY
Coulomb
SciTegic.value.DoubleValue
-1.561

@<SCITEGIC>MOL_PROPERTY
VdW
SciTegic.value.DoubleValue
1.053

@<SCITEGIC>MOL_PROPERTY
VdW6
SciTegic.value.DoubleValue
-7.737

@<SCITEGIC>MOL_PROPERTY
VdW12
SciTegic.value.DoubleValue
8.791

@<SCITEGIC>MOL_PROPERTY
Bond
SciTegic.value.DoubleValue
0.181

@<SCITEGIC>MOL_PROPERTY
Angle
SciTegic.value.DoubleValue
2.780

@<SCITEGIC>MOL_PROPERTY
Pdih
SciTegic.value.DoubleValue
5.235

@<SCITEGIC>MOL_PROPERTY
Idih
SciTegic.value.DoubleValue
0.001

@<SCITEGIC>MOL_PROPERTY
Tether
SciTegic.value.DoubleValue
0.000

@<TRIPOS>MOLECULE
guest-s21_confgen4.mol2 : confsearch ligand conformer 7
          22          21           1
SMALL
USER_CHARGES
 
@<TRIPOS>ATOM
       1    C1      19.690363   19.251173   25.977371 C.2        1 MOL1         0.6145
       2    O1      20.553324   19.914272   26.517804 O.co2      1 MOL1        -0.6735
       3    O2      18.512545   19.312462   26.269681 O.co2      1 MOL1        -0.6735
       4    C2      20.105809   18.304450   24.856906 C.3        1 MOL1        -0.1985
       5    H1      19.431661   17.439647   24.873936 H          1 MOL1         0.0740
       6    H2      21.113757   17.934458   25.079984 H          1 MOL1         0.0740
       7    C3      20.078482   18.975324   23.461390 C.3        1 MOL1        -0.1882
       8    H3      19.066041   19.354622   23.270173 H          1 MOL1         0.0742
       9    H4      20.751274   19.844031   23.463409 H          1 MOL1         0.0742
      10    C4      20.499126   17.992235   22.344405 C.3        1 MOL1        -0.1880
      11    H5      19.795269   17.149485   22.307718 H          1 MOL1         0.0742
      12    H6      21.480668   17.566786   22.594465 H          1 MOL1         0.0742
      13    C5      20.592273   18.650158   20.947257 C.3        1 MOL1        -0.1880
      14    H7      21.299108   19.490438   20.982509 H          1 MOL1         0.0742
      15    H8      21.014968   17.918203   20.245474 H          1 MOL1         0.0742
      16    C6      19.230363   19.137506   20.403212 C.3        1 MOL1        -0.1856
      17    H9      18.825552   19.927650   21.049090 H          1 MOL1         0.0742
      18    H10     18.507913   18.309815   20.417330 H          1 MOL1         0.0742
      19    C7      19.357716   19.681419   18.965974 C.3        1 MOL1        -0.2871
      20    H11     19.724465   18.904490   18.282430 H          1 MOL1         0.0754
      21    H12     20.054527   20.528980   18.927498 H          1 MOL1         0.0754
      22    H13     18.383694   20.026285   18.595275 H          1 MOL1         0.0754
@<TRIPOS>BOND
    1     1     2    1
    2     1     3    2
    3     1     4    1
    4     4     5    1
    5     4     6    1
    6     4     7    1
    7     7     8    1
    8     7     9    1
    9     7    10    1
   10    10    11    1
   11    10    12    1
   12    10    13    1
   13    13    14    1
   14    13    15    1
   15    13    16    1
   16    16    17    1
   17    16    18    1
   18    16    19    1
   19    19    20    1
   20    19    21    1
   21    19    22    1
@<TRIPOS>SUBSTRUCTURE
       1 MOL1            1 RESIDUE      1      MOL     
@<SCITEGIC>MOL_PROPERTY
VConf Rank
SciTegic.value.IntegerValue
7

@<SCITEGIC>MOL_PROPERTY
Conf_Id
SciTegic.value.IntegerValue
50

@<SCITEGIC>MOL_PROPERTY
Delta U+W
SciTegic.value.DoubleValue
-0.486

@<SCITEGIC>MOL_PROPERTY
U+W
SciTegic.value.DoubleValue
-53.646

@<SCITEGIC>MOL_PROPERTY
Grad RMS
SciTegic.value.DoubleValue
0.000000

@<SCITEGIC>MOL_PROPERTY
U
SciTegic.value.DoubleValue
7.026

@<SCITEGIC>MOL_PROPERTY
W
SciTegic.value.DoubleValue
-60.672

@<SCITEGIC>MOL_PROPERTY
W(PB)
SciTegic.value.DoubleValue
-62.964

@<SCITEGIC>MOL_PROPERTY
W(SA)
SciTegic.value.DoubleValue
2.292

@<SCITEGIC>MOL_PROPERTY
Valence
SciTegic.value.DoubleValue
7.637

@<SCITEGIC>MOL_PROPERTY
Coulomb
SciTegic.value.DoubleValue
-1.488

@<SCITEGIC>MOL_PROPERTY
VdW
SciTegic.value.DoubleValue
0.877

@<SCITEGIC>MOL_PROPERTY
VdW6
SciTegic.value.DoubleValue
-7.165

@<SCITEGIC>MOL_PROPERTY
VdW12
SciTegic.value.DoubleValue
8.043

@<SCITEGIC>MOL_PROPERTY
Bond
SciTegic.value.DoubleValue
0.134

@<SCITEGIC>MOL_PROPERTY
Angle
SciTegic.value.DoubleValue
2.513

@<SCITEGIC>MOL_PROPERTY
Pdih
SciTegic.value.DoubleValue
4.990

@<SCITEGIC>MOL_PROPERTY
Idih
SciTegic.value.DoubleValue
0.001

@<SCITEGIC>MOL_PROPERTY
Tether
SciTegic.value.DoubleValue
0.000

@<TRIPOS>MOLECULE
guest-s21_confgen4.mol2 : confsearch ligand conformer 8
          22          21           1
SMALL
USER_CHARGES
 
@<TRIPOS>ATOM
       1    C1      20.004211   19.018204   25.986985 C.2        1 MOL1         0.6145
       2    O1      20.367772   20.051877   26.512167 O.co2      1 MOL1        -0.6735
       3    O2      20.392257   17.917982   26.326675 O.co2      1 MOL1        -0.6735
       4    C2      19.022465   19.108068   24.824047 C.3        1 MOL1        -0.1985
       5    H1      18.368267   19.971107   24.996680 H          1 MOL1         0.0740
       6    H2      18.389681   18.212578   24.842271 H          1 MOL1         0.0740
       7    C3      19.726684   19.236344   23.450759 C.3        1 MOL1        -0.1882
       8    H3      20.362961   20.132142   23.451774 H          1 MOL1         0.0742
       9    H4      20.389719   18.372557   23.310313 H          1 MOL1         0.0742
      10    C4      18.708466   19.320960   22.290095 C.3        1 MOL1        -0.1880
      11    H5      18.007997   20.143569   22.489145 H          1 MOL1         0.0742
      12    H6      18.107269   18.402037   22.256471 H          1 MOL1         0.0742
      13    C5      19.365508   19.560542   20.910074 C.3        1 MOL1        -0.1880
      14    H7      18.570655   19.732157   20.171371 H          1 MOL1         0.0742
      15    H8      19.963615   20.481506   20.942097 H          1 MOL1         0.0742
      16    C6      20.246521   18.383499   20.433972 C.3        1 MOL1        -0.1856
      17    H9      19.663047   17.452677   20.452279 H          1 MOL1         0.0742
      18    H10     21.094080   18.244280   21.117801 H          1 MOL1         0.0742
      19    C7      20.786116   18.621525   19.009226 C.3        1 MOL1        -0.2871
      20    H11     21.396971   19.532873   18.968164 H          1 MOL1         0.0754
      21    H12     19.963661   18.727102   18.289658 H          1 MOL1         0.0754
      22    H13     21.411945   17.779172   18.686971 H          1 MOL1         0.0754
@<TRIPOS>BOND
    1     1     2    1
    2     1     3    2
    3     1     4    1
    4     4     5    1
    5     4     6    1
    6     4     7    1
    7     7     8    1
    8     7     9    1
    9     7    10    1
   10    10    11    1
   11    10    12    1
   12    10    13    1
   13    13    14    1
   14    13    15    1
   15    13    16    1
   16    16    17    1
   17    16    18    1
   18    16    19    1
   19    19    20    1
   20    19    21    1
   21    19    22    1
@<TRIPOS>SUBSTRUCTURE
       1 MOL1            1 RESIDUE      1      MOL     
@<SCITEGIC>MOL_PROPERTY
VConf Rank
SciTegic.value.IntegerValue
8

@<SCITEGIC>MOL_PROPERTY
Conf_Id
SciTegic.value.IntegerValue
51

@<SCITEGIC>MOL_PROPERTY
Delta U+W
SciTegic.value.DoubleValue
-0.517

@<SCITEGIC>MOL_PROPERTY
U+W
SciTegic.value.DoubleValue
-53.677

@<SCITEGIC>MOL_PROPERTY
Grad RMS
SciTegic.value.DoubleValue
0.000000

@<SCITEGIC>MOL_PROPERTY
U
SciTegic.value.DoubleValue
7.026

@<SCITEGIC>MOL_PROPERTY
W
SciTegic.value.DoubleValue
-60.703

@<SCITEGIC>MOL_PROPERTY
W(PB)
SciTegic.value.DoubleValue
-63.007

@<SCITEGIC>MOL_PROPERTY
W(SA)
SciTegic.value.DoubleValue
2.304

@<SCITEGIC>MOL_PROPERTY
Valence
SciTegic.value.DoubleValue
7.638

@<SCITEGIC>MOL_PROPERTY
Coulomb
SciTegic.value.DoubleValue
-1.488

@<SCITEGIC>MOL_PROPERTY
VdW
SciTegic.value.DoubleValue
0.877

@<SCITEGIC>MOL_PROPERTY
VdW6
SciTegic.value.DoubleValue
-7.165

@<SCITEGIC>MOL_PROPERTY
VdW12
SciTegic.value.DoubleValue
8.042

@<SCITEGIC>MOL_PROPERTY
Bond
SciTegic.value.DoubleValue
0.134

@<SCITEGIC>MOL_PROPERTY
Angle
SciTegic.value.DoubleValue
2.513

@<SCITEGIC>MOL_PROPERTY
Pdih
SciTegic.value.DoubleValue
4.990

@<SCITEGIC>MOL_PROPERTY
Idih
SciTegic.value.DoubleValue
0.001

@<SCITEGIC>MOL_PROPERTY
Tether
SciTegic.value.DoubleValue
0.000

@<TRIPOS>MOLECULE
guest-s21_confgen4.mol2 : confsearch ligand conformer 9
          22          21           1
SMALL
USER_CHARGES
 
@<TRIPOS>ATOM
       1    C1      19.649551   19.236047   25.789911 C.2        1 MOL1         0.6145
       2    O1      20.248101   20.199300   26.226697 O.co2      1 MOL1        -0.6735
       3    O2      18.444654   19.099956   25.870495 O.co2      1 MOL1        -0.6735
       4    C2      20.459541   18.129099   25.120795 C.3        1 MOL1        -0.1985
       5    H1      19.853069   17.215517   25.099218 H          1 MOL1         0.0740
       6    H2      21.323672   17.921268   25.762765 H          1 MOL1         0.0740
       7    C3      20.948629   18.481089   23.691848 C.3        1 MOL1        -0.1882
       8    H3      21.530411   19.412781   23.725510 H          1 MOL1         0.0742
       9    H4      21.631901   17.694060   23.345051 H          1 MOL1         0.0742
      10    C4      19.785798   18.626267   22.684707 C.3        1 MOL1        -0.1880
      11    H5      19.106612   19.423975   23.016034 H          1 MOL1         0.0742
      12    H6      19.199713   17.697229   22.664510 H          1 MOL1         0.0742
      13    C5      20.296990   18.945390   21.263337 C.3        1 MOL1        -0.1880
      14    H7      20.882931   19.874551   21.284360 H          1 MOL1         0.0742
      15    H8      20.974183   18.147634   20.928596 H          1 MOL1         0.0742
      16    C6      19.136240   19.091289   20.257146 C.3        1 MOL1        -0.1856
      17    H9      18.457590   19.889774   20.587839 H          1 MOL1         0.0742
      18    H10     18.548759   18.163009   20.232143 H          1 MOL1         0.0742
      19    C7      19.650497   19.410564   18.839063 C.3        1 MOL1        -0.2871
      20    H11     20.215698   20.351757   18.828903 H          1 MOL1         0.0754
      21    H12     18.812469   19.510897   18.137118 H          1 MOL1         0.0754
      22    H13     20.307624   18.611974   18.470505 H          1 MOL1         0.0754
@<TRIPOS>BOND
    1     1     2    1
    2     1     3    2
    3     1     4    1
    4     4     5    1
    5     4     6    1
    6     4     7    1
    7     7     8    1
    8     7     9    1
    9     7    10    1
   10    10    11    1
   11    10    12    1
   12    10    13    1
   13    13    14    1
   14    13    15    1
   15    13    16    1
   16    16    17    1
   17    16    18    1
   18    16    19    1
   19    19    20    1
   20    19    21    1
   21    19    22    1
@<TRIPOS>SUBSTRUCTURE
       1 MOL1            1 RESIDUE      1      MOL     
@<SCITEGIC>MOL_PROPERTY
VConf Rank
SciTegic.value.IntegerValue
9

@<SCITEGIC>MOL_PROPERTY
Conf_Id
SciTegic.value.IntegerValue
43

@<SCITEGIC>MOL_PROPERTY
Delta U+W
SciTegic.value.DoubleValue
-0.129

@<SCITEGIC>MOL_PROPERTY
U+W
SciTegic.value.DoubleValue
-53.289

@<SCITEGIC>MOL_PROPERTY
Grad RMS
SciTegic.value.DoubleValue
0.000000

@<SCITEGIC>MOL_PROPERTY
U
SciTegic.value.DoubleValue
7.937

@<SCITEGIC>MOL_PROPERTY
W
SciTegic.value.DoubleValue
-61.225

@<SCITEGIC>MOL_PROPERTY
W(PB)
SciTegic.value.DoubleValue
-63.523

@<SCITEGIC>MOL_PROPERTY
W(SA)
SciTegic.value.DoubleValue
2.297

@<SCITEGIC>MOL_PROPERTY
Valence
SciTegic.value.DoubleValue
7.358

@<SCITEGIC>MOL_PROPERTY
Coulomb
SciTegic.value.DoubleValue
-0.022

@<SCITEGIC>MOL_PROPERTY
VdW
SciTegic.value.DoubleValue
0.601

@<SCITEGIC>MOL_PROPERTY
VdW6
SciTegic.value.DoubleValue
-7.363

@<SCITEGIC>MOL_PROPERTY
VdW12
SciTegic.value.DoubleValue
7.964

@<SCITEGIC>MOL_PROPERTY
Bond
SciTegic.value.DoubleValue
0.121

@<SCITEGIC>MOL_PROPERTY
Angle
SciTegic.value.DoubleValue
2.425

@<SCITEGIC>MOL_PROPERTY
Pdih
SciTegic.value.DoubleValue
4.811

@<SCITEGIC>MOL_PROPERTY
Idih
SciTegic.value.DoubleValue
0.000

@<SCITEGIC>MOL_PROPERTY
Tether
SciTegic.value.DoubleValue
0.000

@<TRIPOS>MOLECULE
guest-s21_confgen4.mol2 : confsearch ligand conformer 10
          22          21           1
SMALL
USER_CHARGES
 
@<TRIPOS>ATOM
       1    C1      20.008957   18.969358   25.800870 C.2        1 MOL1         0.6145
       2    O1      20.740180   19.834230   26.241565 O.co2      1 MOL1        -0.6735
       3    O2      20.224246   17.779727   25.924241 O.co2      1 MOL1        -0.6735
       4    C2      18.742123   19.403252   25.068752 C.3        1 MOL1        -0.1985
       5    H1      18.268343   20.188050   25.670138 H          1 MOL1         0.0740
       6    H2      18.044530   18.557275   25.044429 H          1 MOL1         0.0740
       7    C3      18.993216   19.931796   23.632579 C.3        1 MOL1        -0.1882
       8    H3      18.056398   20.346704   23.236644 H          1 MOL1         0.0742
       9    H4      19.714770   20.759791   23.670477 H          1 MOL1         0.0742
      10    C4      19.507763   18.832532   22.676311 C.3        1 MOL1        -0.1880
      11    H5      18.789461   18.001587   22.652092 H          1 MOL1         0.0742
      12    H6      20.454211   18.424174   23.056951 H          1 MOL1         0.0742
      13    C5      19.720747   19.372914   21.245898 C.3        1 MOL1        -0.1880
      14    H7      18.774965   19.779265   20.861926 H          1 MOL1         0.0742
      15    H8      20.439186   20.203773   21.270951 H          1 MOL1         0.0742
      16    C6      20.235335   18.275874   20.290517 C.3        1 MOL1        -0.1856
      17    H9      19.518344   17.443678   20.261584 H          1 MOL1         0.0742
      18    H10     21.182399   17.868232   20.670517 H          1 MOL1         0.0742
      19    C7      20.447434   18.819316   18.863267 C.3        1 MOL1        -0.2871
      20    H11     19.507973   19.205227   18.446276 H          1 MOL1         0.0754
      21    H12     20.813220   18.026541   18.197840 H          1 MOL1         0.0754
      22    H13     21.184586   19.632940   18.858318 H          1 MOL1         0.0754
@<TRIPOS>BOND
    1     1     2    1
    2     1     3    2
    3     1     4    1
    4     4     5    1
    5     4     6    1
    6     4     7    1
    7     7     8    1
    8     7     9    1
    9     7    10    1
   10    10    11    1
   11    10    12    1
   12    10    13    1
   13    13    14    1
   14    13    15    1
   15    13    16    1
   16    16    17    1
   17    16    18    1
   18    16    19    1
   19    19    20    1
   20    19    21    1
   21    19    22    1
@<TRIPOS>SUBSTRUCTURE
       1 MOL1            1 RESIDUE      1      MOL     
@<SCITEGIC>MOL_PROPERTY
VConf Rank
SciTegic.value.IntegerValue
10

@<SCITEGIC>MOL_PROPERTY
Conf_Id
SciTegic.value.IntegerValue
44

@<SCITEGIC>MOL_PROPERTY
Delta U+W
SciTegic.value.DoubleValue
-0.155

@<SCITEGIC>MOL_PROPERTY
U+W
SciTegic.value.DoubleValue
-53.314

@<SCITEGIC>MOL_PROPERTY
Grad RMS
SciTegic.value.DoubleValue
0.000000

@<SCITEGIC>MOL_PROPERTY
U
SciTegic.value.DoubleValue
7.937

@<SCITEGIC>MOL_PROPERTY
W
SciTegic.value.DoubleValue
-61.252

@<SCITEGIC>MOL_PROPERTY
W(PB)
SciTegic.value.DoubleValue
-63.556

@<SCITEGIC>MOL_PROPERTY
W(SA)
SciTegic.value.DoubleValue
2.304

@<SCITEGIC>MOL_PROPERTY
Valence
SciTegic.value.DoubleValue
7.358

@<SCITEGIC>MOL_PROPERTY
Coulomb
SciTegic.value.DoubleValue
-0.021

@<SCITEGIC>MOL_PROPERTY
VdW
SciTegic.value.DoubleValue
0.600

@<SCITEGIC>MOL_PROPERTY
VdW6
SciTegic.value.DoubleValue
-7.363

@<SCITEGIC>MOL_PROPERTY
VdW12
SciTegic.value.DoubleValue
7.964

@<SCITEGIC>MOL_PROPERTY
Bond
SciTegic.value.DoubleValue
0.121

@<SCITEGIC>MOL_PROPERTY
Angle
SciTegic.value.DoubleValue
2.425

@<SCITEGIC>MOL_PROPERTY
Pdih
SciTegic.value.DoubleValue
4.811

@<SCITEGIC>MOL_PROPERTY
Idih
SciTegic.value.DoubleValue
0.001

@<SCITEGIC>MOL_PROPERTY
Tether
SciTegic.value.DoubleValue
0.000

@<TRIPOS>MOLECULE
guest-s21_confgen4.mol2 : confsearch ligand conformer 11
          22          21           1
SMALL
USER_CHARGES
 
@<TRIPOS>ATOM
       1    C1      19.858202   19.111543   25.840827 C.2        1 MOL1         0.6145
       2    O1      20.457061   20.089797   26.242461 O.co2      1 MOL1        -0.6735
       3    O2      20.083380   17.980856   26.225157 O.co2      1 MOL1        -0.6735
       4    C2      18.750286   19.318796   24.811808 C.3        1 MOL1        -0.1985
       5    H1      18.138742   20.161533   25.155088 H          1 MOL1         0.0740
       6    H2      18.101244   18.434696   24.812448 H          1 MOL1         0.0740
       7    C3      19.264983   19.603914   23.376740 C.3        1 MOL1        -0.1882
       8    H3      18.409753   19.889878   22.751463 H          1 MOL1         0.0742
       9    H4      19.944976   20.466770   23.398886 H          1 MOL1         0.0742
      10    C4      19.984209   18.384880   22.750736 C.3        1 MOL1        -0.1880
      11    H5      19.290075   17.535546   22.690631 H          1 MOL1         0.0742
      12    H6      20.801745   18.069410   23.413385 H          1 MOL1         0.0742
      13    C5      20.576682   18.670602   21.350320 C.3        1 MOL1        -0.1880
      14    H7      21.270596   19.520153   21.410863 H          1 MOL1         0.0742
      15    H8      21.175350   17.802318   21.042780 H          1 MOL1         0.0742
      16    C6      19.505756   18.947878   20.271126 C.3        1 MOL1        -0.1856
      17    H9      18.946970   19.860152   20.517559 H          1 MOL1         0.0742
      18    H10     18.780208   18.123100   20.248420 H          1 MOL1         0.0742
      19    C7      20.139443   19.110733   18.874825 C.3        1 MOL1        -0.2871
      20    H11     20.850349   19.947288   18.861722 H          1 MOL1         0.0754
      21    H12     19.367225   19.310257   18.120548 H          1 MOL1         0.0754
      22    H13     20.675826   18.200052   18.577652 H          1 MOL1         0.0754
@<TRIPOS>BOND
    1     1     2    1
    2     1     3    2
    3     1     4    1
    4     4     5    1
    5     4     6    1
    6     4     7    1
    7     7     8    1
    8     7     9    1
    9     7    10    1
   10    10    11    1
   11    10    12    1
   12    10    13    1
   13    13    14    1
   14    13    15    1
   15    13    16    1
   16    16    17    1
   17    16    18    1
   18    16    19    1
   19    19    20    1
   20    19    21    1
   21    19    22    1
@<TRIPOS>SUBSTRUCTURE
       1 MOL1            1 RESIDUE      1      MOL     
@<SCITEGIC>MOL_PROPERTY
VConf Rank
SciTegic.value.IntegerValue
11

@<SCITEGIC>MOL_PROPERTY
Conf_Id
SciTegic.value.IntegerValue
53

@<SCITEGIC>MOL_PROPERTY
Delta U+W
SciTegic.value.DoubleValue
0.723

@<SCITEGIC>MOL_PROPERTY
U+W
SciTegic.value.DoubleValue
-52.436

@<SCITEGIC>MOL_PROPERTY
Grad RMS
SciTegic.value.DoubleValue
0.000000

@<SCITEGIC>MOL_PROPERTY
U
SciTegic.value.DoubleValue
8.587

@<SCITEGIC>MOL_PROPERTY
W
SciTegic.value.DoubleValue
-61.022

@<SCITEGIC>MOL_PROPERTY
W(PB)
SciTegic.value.DoubleValue
-63.285

@<SCITEGIC>MOL_PROPERTY
W(SA)
SciTegic.value.DoubleValue
2.263

@<SCITEGIC>MOL_PROPERTY
Valence
SciTegic.value.DoubleValue
7.933

@<SCITEGIC>MOL_PROPERTY
Coulomb
SciTegic.value.DoubleValue
-0.124

@<SCITEGIC>MOL_PROPERTY
VdW
SciTegic.value.DoubleValue
0.778

@<SCITEGIC>MOL_PROPERTY
VdW6
SciTegic.value.DoubleValue
-7.981

@<SCITEGIC>MOL_PROPERTY
VdW12
SciTegic.value.DoubleValue
8.759

@<SCITEGIC>MOL_PROPERTY
Bond
SciTegic.value.DoubleValue
0.160

@<SCITEGIC>MOL_PROPERTY
Angle
SciTegic.value.DoubleValue
2.698

@<SCITEGIC>MOL_PROPERTY
Pdih
SciTegic.value.DoubleValue
5.074

@<SCITEGIC>MOL_PROPERTY
Idih
SciTegic.value.DoubleValue
0.001

@<SCITEGIC>MOL_PROPERTY
Tether
SciTegic.value.DoubleValue
0.000

@<TRIPOS>MOLECULE
guest-s21_confgen4.mol2 : confsearch ligand conformer 12
          22          21           1
SMALL
USER_CHARGES
 
@<TRIPOS>ATOM
       1    C1      20.276180   19.051705   25.650238 C.2        1 MOL1         0.6145
       2    O1      20.816414   20.099238   25.945859 O.co2      1 MOL1        -0.6735
       3    O2      19.924208   18.222786   26.466076 O.co2      1 MOL1        -0.6735
       4    C2      20.004851   18.771663   24.176482 C.3        1 MOL1        -0.1985
       5    H1      20.050021   17.687129   24.021475 H          1 MOL1         0.0740
       6    H2      20.819149   19.222653   23.598333 H          1 MOL1         0.0740
       7    C3      18.637231   19.324757   23.702313 C.3        1 MOL1        -0.1882
       8    H3      17.855752   18.963840   24.385286 H          1 MOL1         0.0742
       9    H4      18.640346   20.419969   23.790384 H          1 MOL1         0.0742
      10    C4      18.251271   18.921063   22.257068 C.3        1 MOL1        -0.1880
      11    H5      17.250857   19.328235   22.056244 H          1 MOL1         0.0742
      12    H6      18.148970   17.829624   22.184607 H          1 MOL1         0.0742
      13    C5      19.214074   19.444732   21.161399 C.3        1 MOL1        -0.1880
      14    H7      18.621481   19.709308   20.274931 H          1 MOL1         0.0742
      15    H8      19.695963   20.373946   21.495028 H          1 MOL1         0.0742
      16    C6      20.279356   18.408316   20.735056 C.3        1 MOL1        -0.1856
      17    H9      19.782022   17.507313   20.350287 H          1 MOL1         0.0742
      18    H10     20.877758   18.092017   21.597748 H          1 MOL1         0.0742
      19    C7      21.216414   18.974739   19.649506 C.3        1 MOL1        -0.2871
      20    H11     20.651076   19.263858   18.753886 H          1 MOL1         0.0754
      21    H12     21.961852   18.225591   19.352634 H          1 MOL1         0.0754
      22    H13     21.752742   19.859384   20.017084 H          1 MOL1         0.0754
@<TRIPOS>BOND
    1     1     2    1
    2     1     3    2
    3     1     4    1
    4     4     5    1
    5     4     6    1
    6     4     7    1
    7     7     8    1
    8     7     9    1
    9     7    10    1
   10    10    11    1
   11    10    12    1
   12    10    13    1
   13    13    14    1
   14    13    15    1
   15    13    16    1
   16    16    17    1
   17    16    18    1
   18    16    19    1
   19    19    20    1
   20    19    21    1
   21    19    22    1
@<TRIPOS>SUBSTRUCTURE
       1 MOL1            1 RESIDUE      1      MOL     
@<SCITEGIC>MOL_PROPERTY
VConf Rank
SciTegic.value.IntegerValue
12

@<SCITEGIC>MOL_PROPERTY
Conf_Id
SciTegic.value.IntegerValue
5

@<SCITEGIC>MOL_PROPERTY
Delta U+W
SciTegic.value.DoubleValue
2.167

@<SCITEGIC>MOL_PROPERTY
U+W
SciTegic.value.DoubleValue
-50.993

@<SCITEGIC>MOL_PROPERTY
Grad RMS
SciTegic.value.DoubleValue
0.000000

@<SCITEGIC>MOL_PROPERTY
U
SciTegic.value.DoubleValue
10.045

@<SCITEGIC>MOL_PROPERTY
W
SciTegic.value.DoubleValue
-61.037

@<SCITEGIC>MOL_PROPERTY
W(PB)
SciTegic.value.DoubleValue
-63.303

@<SCITEGIC>MOL_PROPERTY
W(SA)
SciTegic.value.DoubleValue
2.266

@<SCITEGIC>MOL_PROPERTY
Valence
SciTegic.value.DoubleValue
10.100

@<SCITEGIC>MOL_PROPERTY
Coulomb
SciTegic.value.DoubleValue
-0.883

@<SCITEGIC>MOL_PROPERTY
VdW
SciTegic.value.DoubleValue
0.828

@<SCITEGIC>MOL_PROPERTY
VdW6
SciTegic.value.DoubleValue
-8.177

@<SCITEGIC>MOL_PROPERTY
VdW12
SciTegic.value.DoubleValue
9.005

@<SCITEGIC>MOL_PROPERTY
Bond
SciTegic.value.DoubleValue
0.182

@<SCITEGIC>MOL_PROPERTY
Angle
SciTegic.value.DoubleValue
2.988

@<SCITEGIC>MOL_PROPERTY
Pdih
SciTegic.value.DoubleValue
6.930

@<SCITEGIC>MOL_PROPERTY
Idih
SciTegic.value.DoubleValue
0.001

@<SCITEGIC>MOL_PROPERTY
Tether
SciTegic.value.DoubleValue
0.000

@<TRIPOS>MOLECULE
guest-s21_confgen4.mol2 : confsearch ligand conformer 13
          22          21           1
SMALL
USER_CHARGES
 
@<TRIPOS>ATOM
       1    C1      19.656783   19.511226   25.631432 C.2        1 MOL1         0.6145
       2    O1      20.491008   20.340595   25.936041 O.co2      1 MOL1        -0.6735
       3    O2      18.933980   18.957329   26.436005 O.co2      1 MOL1        -0.6735
       4    C2      19.525151   19.127607   24.161904 C.3        1 MOL1        -0.1985
       5    H1      19.743607   20.020656   23.565690 H          1 MOL1         0.0740
       6    H2      18.480851   18.851321   23.973792 H          1 MOL1         0.0740
       7    C3      20.468313   17.966423   23.757878 C.3        1 MOL1        -0.1882
       8    H3      21.511481   18.290069   23.877504 H          1 MOL1         0.0742
       9    H4      20.322450   17.133986   24.460155 H          1 MOL1         0.0742
      10    C4      20.250395   17.438035   22.317743 C.3        1 MOL1        -0.1880
      11    H5      19.238929   17.021044   22.217705 H          1 MOL1         0.0742
      12    H6      20.937096   16.593640   22.168131 H          1 MOL1         0.0742
      13    C5      20.515584   18.479178   21.200869 C.3        1 MOL1        -0.1880
      14    H7      21.251921   19.219644   21.542163 H          1 MOL1         0.0742
      15    H8      20.974678   17.963479   20.346305 H          1 MOL1         0.0742
      16    C6      19.232827   19.184682   20.703319 C.3        1 MOL1        -0.1856
      17    H9      18.723498   19.690215   21.532406 H          1 MOL1         0.0742
      18    H10     18.529948   18.436148   20.312354 H          1 MOL1         0.0742
      19    C7      19.545960   20.213923   19.598809 C.3        1 MOL1        -0.2871
      20    H11     20.222480   20.994576   19.970642 H          1 MOL1         0.0754
      21    H12     18.625399   20.700603   19.251328 H          1 MOL1         0.0754
      22    H13     20.021132   19.731194   18.734797 H          1 MOL1         0.0754
@<TRIPOS>BOND
    1     1     2    1
    2     1     3    2
    3     1     4    1
    4     4     5    1
    5     4     6    1
    6     4     7    1
    7     7     8    1
    8     7     9    1
    9     7    10    1
   10    10    11    1
   11    10    12    1
   12    10    13    1
   13    13    14    1
   14    13    15    1
   15    13    16    1
   16    16    17    1
   17    16    18    1
   18    16    19    1
   19    19    20    1
   20    19    21    1
   21    19    22    1
@<TRIPOS>SUBSTRUCTURE
       1 MOL1            1 RESIDUE      1      MOL     
@<SCITEGIC>MOL_PROPERTY
VConf Rank
SciTegic.value.IntegerValue
13

@<SCITEGIC>MOL_PROPERTY
Conf_Id
SciTegic.value.IntegerValue
6

@<SCITEGIC>MOL_PROPERTY
Delta U+W
SciTegic.value.DoubleValue
2.118

@<SCITEGIC>MOL_PROPERTY
U+W
SciTegic.value.DoubleValue
-51.042

@<SCITEGIC>MOL_PROPERTY
Grad RMS
SciTegic.value.DoubleValue
0.000000

@<SCITEGIC>MOL_PROPERTY
U
SciTegic.value.DoubleValue
10.045

@<SCITEGIC>MOL_PROPERTY
W
SciTegic.value.DoubleValue
-61.086

@<SCITEGIC>MOL_PROPERTY
W(PB)
SciTegic.value.DoubleValue
-63.356

@<SCITEGIC>MOL_PROPERTY
W(SA)
SciTegic.value.DoubleValue
2.270

@<SCITEGIC>MOL_PROPERTY
Valence
SciTegic.value.DoubleValue
10.100

@<SCITEGIC>MOL_PROPERTY
Coulomb
SciTegic.value.DoubleValue
-0.883

@<SCITEGIC>MOL_PROPERTY
VdW
SciTegic.value.DoubleValue
0.828

@<SCITEGIC>MOL_PROPERTY
VdW6
SciTegic.value.DoubleValue
-8.177

@<SCITEGIC>MOL_PROPERTY
VdW12
SciTegic.value.DoubleValue
9.004

@<SCITEGIC>MOL_PROPERTY
Bond
SciTegic.value.DoubleValue
0.182

@<SCITEGIC>MOL_PROPERTY
Angle
SciTegic.value.DoubleValue
2.988

@<SCITEGIC>MOL_PROPERTY
Pdih
SciTegic.value.DoubleValue
6.930

@<SCITEGIC>MOL_PROPERTY
Idih
SciTegic.value.DoubleValue
0.001

@<SCITEGIC>MOL_PROPERTY
Tether
SciTegic.value.DoubleValue
0.000

@<TRIPOS>MOLECULE
guest-s21_confgen4.mol2 : confsearch ligand conformer 14
          22          21           1
SMALL
USER_CHARGES
 
@<TRIPOS>ATOM
       1    C1      20.295190   19.051487   25.231801 C.2        1 MOL1         0.6145
       2    O1      20.571980   20.207245   25.486959 O.co2      1 MOL1        -0.6735
       3    O2      21.118450   18.158362   25.191494 O.co2      1 MOL1        -0.6735
       4    C2      18.826891   18.687231   25.019974 C.3        1 MOL1        -0.1985
       5    H1      18.317489   18.897772   25.967452 H          1 MOL1         0.0740
       6    H2      18.747947   17.605856   24.854934 H          1 MOL1         0.0740
       7    C3      18.109357   19.460053   23.877620 C.3        1 MOL1        -0.1882
       8    H3      17.027169   19.400084   24.055655 H          1 MOL1         0.0742
       9    H4      18.365167   20.527514   23.929209 H          1 MOL1         0.0742
      10    C4      18.383633   18.916361   22.453512 C.3        1 MOL1        -0.1880
      11    H5      17.711178   19.433027   21.755059 H          1 MOL1         0.0742
      12    H6      18.117978   17.851429   22.406860 H          1 MOL1         0.0742
      13    C5      19.840281   19.109802   21.974696 C.3        1 MOL1        -0.1880
      14    H7      20.139814   20.157111   22.117765 H          1 MOL1         0.0742
      15    H8      20.517297   18.496018   22.582134 H          1 MOL1         0.0742
      16    C6      20.009202   18.721732   20.490508 C.3        1 MOL1        -0.1856
      17    H9      19.343043   19.335081   19.868101 H          1 MOL1         0.0742
      18    H10     19.708286   17.674911   20.345491 H          1 MOL1         0.0742
      19    C7      21.465017   18.906727   20.017436 C.3        1 MOL1        -0.2871
      20    H11     21.781932   19.952615   20.122556 H          1 MOL1         0.0754
      21    H12     21.567648   18.625569   18.961291 H          1 MOL1         0.0754
      22    H13     22.150535   18.280542   20.603491 H          1 MOL1         0.0754
@<TRIPOS>BOND
    1     1     2    1
    2     1     3    2
    3     1     4    1
    4     4     5    1
    5     4     6    1
    6     4     7    1
    7     7     8    1
    8     7     9    1
    9     7    10    1
   10    10    11    1
   11    10    12    1
   12    10    13    1
   13    13    14    1
   14    13    15    1
   15    13    16    1
   16    16    17    1
   17    16    18    1
   18    16    19    1
   19    19    20    1
   20    19    21    1
   21    19    22    1
@<TRIPOS>SUBSTRUCTURE
       1 MOL1            1 RESIDUE      1      MOL     
@<SCITEGIC>MOL_PROPERTY
VConf Rank
SciTegic.value.IntegerValue
14

@<SCITEGIC>MOL_PROPERTY
Conf_Id
SciTegic.value.IntegerValue
8

@<SCITEGIC>MOL_PROPERTY
Delta U+W
SciTegic.value.DoubleValue
1.886

@<SCITEGIC>MOL_PROPERTY
U+W
SciTegic.value.DoubleValue
-51.274

@<SCITEGIC>MOL_PROPERTY
Grad RMS
SciTegic.value.DoubleValue
0.000000

@<SCITEGIC>MOL_PROPERTY
U
SciTegic.value.DoubleValue
11.237

@<SCITEGIC>MOL_PROPERTY
W
SciTegic.value.DoubleValue
-62.510

@<SCITEGIC>MOL_PROPERTY
W(PB)
SciTegic.value.DoubleValue
-64.777

@<SCITEGIC>MOL_PROPERTY
W(SA)
SciTegic.value.DoubleValue
2.267

@<SCITEGIC>MOL_PROPERTY
Valence
SciTegic.value.DoubleValue
9.029

@<SCITEGIC>MOL_PROPERTY
Coulomb
SciTegic.value.DoubleValue
1.667

@<SCITEGIC>MOL_PROPERTY
VdW
SciTegic.value.DoubleValue
0.540

@<SCITEGIC>MOL_PROPERTY
VdW6
SciTegic.value.DoubleValue
-8.825

@<SCITEGIC>MOL_PROPERTY
VdW12
SciTegic.value.DoubleValue
9.365

@<SCITEGIC>MOL_PROPERTY
Bond
SciTegic.value.DoubleValue
0.186

@<SCITEGIC>MOL_PROPERTY
Angle
SciTegic.value.DoubleValue
3.195

@<SCITEGIC>MOL_PROPERTY
Pdih
SciTegic.value.DoubleValue
5.642

@<SCITEGIC>MOL_PROPERTY
Idih
SciTegic.value.DoubleValue
0.007

@<SCITEGIC>MOL_PROPERTY
Tether
SciTegic.value.DoubleValue
0.000

@<TRIPOS>MOLECULE
guest-s21_confgen4.mol2 : confsearch ligand conformer 15
          22          21           1
SMALL
USER_CHARGES
 
@<TRIPOS>ATOM
       1    C1      20.039784   19.242118   25.506382 C.2        1 MOL1         0.6145
       2    O1      20.788186   20.180746   25.317606 O.co2      1 MOL1        -0.6735
       3    O2      20.281156   18.334825   26.278305 O.co2      1 MOL1        -0.6735
       4    C2      18.710545   19.214185   24.757045 C.3        1 MOL1        -0.1985
       5    H1      18.523785   20.208202   24.335431 H          1 MOL1         0.0740
       6    H2      17.922478   19.040447   25.498994 H          1 MOL1         0.0740
       7    C3      18.625407   18.123637   23.654047 C.3        1 MOL1        -0.1882
       8    H3      18.737973   17.137917   24.126288 H          1 MOL1         0.0742
       9    H4      17.621189   18.138219   23.209454 H          1 MOL1         0.0742
      10    C4      19.682342   18.259192   22.530106 C.3        1 MOL1        -0.1880
      11    H5      19.586175   17.389055   21.868588 H          1 MOL1         0.0742
      12    H6      20.691364   18.210040   22.961827 H          1 MOL1         0.0742
      13    C5      19.535736   19.557700   21.699547 C.3        1 MOL1        -0.1880
      14    H7      18.521603   19.620261   21.282279 H          1 MOL1         0.0742
      15    H8      19.657614   20.425902   22.360081 H          1 MOL1         0.0742
      16    C6      20.573528   19.677777   20.559122 C.3        1 MOL1        -0.1856
      17    H9      21.588765   19.599935   20.972175 H          1 MOL1         0.0742
      18    H10     20.494968   20.680640   20.117228 H          1 MOL1         0.0742
      19    C7      20.383315   18.628820   19.441839 C.3        1 MOL1        -0.2871
      20    H11     20.572825   17.612373   19.808267 H          1 MOL1         0.0754
      21    H12     21.080579   18.818359   18.615525 H          1 MOL1         0.0754
      22    H13     19.363183   18.665479   19.038001 H          1 MOL1         0.0754
@<TRIPOS>BOND
    1     1     2    1
    2     1     3    2
    3     1     4    1
    4     4     5    1
    5     4     6    1
    6     4     7    1
    7     7     8    1
    8     7     9    1
    9     7    10    1
   10    10    11    1
   11    10    12    1
   12    10    13    1
   13    13    14    1
   14    13    15    1
   15    13    16    1
   16    16    17    1
   17    16    18    1
   18    16    19    1
   19    19    20    1
   20    19    21    1
   21    19    22    1
@<TRIPOS>SUBSTRUCTURE
       1 MOL1            1 RESIDUE      1      MOL     
@<SCITEGIC>MOL_PROPERTY
VConf Rank
SciTegic.value.IntegerValue
15

@<SCITEGIC>MOL_PROPERTY
Conf_Id
SciTegic.value.IntegerValue
93

@<SCITEGIC>MOL_PROPERTY
Delta U+W
SciTegic.value.DoubleValue
1.836

@<SCITEGIC>MOL_PROPERTY
U+W
SciTegic.value.DoubleValue
-51.323

@<SCITEGIC>MOL_PROPERTY
Grad RMS
SciTegic.value.DoubleValue
0.000000

@<SCITEGIC>MOL_PROPERTY
U
SciTegic.value.DoubleValue
10.427

@<SCITEGIC>MOL_PROPERTY
W
SciTegic.value.DoubleValue
-61.751

@<SCITEGIC>MOL_PROPERTY
W(PB)
SciTegic.value.DoubleValue
-63.980

@<SCITEGIC>MOL_PROPERTY
W(SA)
SciTegic.value.DoubleValue
2.230

@<SCITEGIC>MOL_PROPERTY
Valence
SciTegic.value.DoubleValue
8.446

@<SCITEGIC>MOL_PROPERTY
Coulomb
SciTegic.value.DoubleValue
1.306

@<SCITEGIC>MOL_PROPERTY
VdW
SciTegic.value.DoubleValue
0.676

@<SCITEGIC>MOL_PROPERTY
VdW6
SciTegic.value.DoubleValue
-8.928

@<SCITEGIC>MOL_PROPERTY
VdW12
SciTegic.value.DoubleValue
9.604

@<SCITEGIC>MOL_PROPERTY
Bond
SciTegic.value.DoubleValue
0.209

@<SCITEGIC>MOL_PROPERTY
Angle
SciTegic.value.DoubleValue
3.066

@<SCITEGIC>MOL_PROPERTY
Pdih
SciTegic.value.DoubleValue
5.170

@<SCITEGIC>MOL_PROPERTY
Idih
SciTegic.value.DoubleValue
0.001

@<SCITEGIC>MOL_PROPERTY
Tether
SciTegic.value.DoubleValue
0.000

@<TRIPOS>MOLECULE
guest-s21_confgen4.mol2 : confsearch ligand conformer 16
          22          21           1
SMALL
USER_CHARGES
 
@<TRIPOS>ATOM
       1    C1      19.978867   18.876117   25.516505 C.2        1 MOL1         0.6145
       2    O1      20.615617   19.627420   26.228826 O.co2      1 MOL1        -0.6735
       3    O2      20.230526   17.693767   25.392081 O.co2      1 MOL1        -0.6735
       4    C2      18.780335   19.444376   24.761677 C.3        1 MOL1        -0.1985
       5    H1      18.169067   19.993043   25.487651 H          1 MOL1         0.0740
       6    H2      18.163081   18.612324   24.404749 H          1 MOL1         0.0740
       7    C3      19.158012   20.391674   23.589868 C.3        1 MOL1        -0.1882
       8    H3      18.239818   20.796168   23.143060 H          1 MOL1         0.0742
       9    H4      19.706171   21.252272   23.997567 H          1 MOL1         0.0742
      10    C4      20.017853   19.735343   22.481430 C.3        1 MOL1        -0.1880
      11    H5      20.955375   19.359048   22.913147 H          1 MOL1         0.0742
      12    H6      20.299204   20.516748   21.764323 H          1 MOL1         0.0742
      13    C5      19.292128   18.588218   21.736535 C.3        1 MOL1        -0.1880
      14    H7      19.034741   17.797099   22.452647 H          1 MOL1         0.0742
      15    H8      18.344429   18.955613   21.320141 H          1 MOL1         0.0742
      16    C6      20.141205   17.953250   20.610535 C.3        1 MOL1        -0.1856
      17    H9      19.616900   17.063893   20.234601 H          1 MOL1         0.0742
      18    H10     21.096587   17.598905   21.021709 H          1 MOL1         0.0742
      19    C7      20.405459   18.908836   19.426544 C.3        1 MOL1        -0.2871
      20    H11     21.033336   19.756773   19.726748 H          1 MOL1         0.0754
      21    H12     19.464087   19.302723   19.021857 H          1 MOL1         0.0754
      22    H13     20.926383   18.381200   18.617139 H          1 MOL1         0.0754
@<TRIPOS>BOND
    1     1     2    1
    2     1     3    2
    3     1     4    1
    4     4     5    1
    5     4     6    1
    6     4     7    1
    7     7     8    1
    8     7     9    1
    9     7    10    1
   10    10    11    1
   11    10    12    1
   12    10    13    1
   13    13    14    1
   14    13    15    1
   15    13    16    1
   16    16    17    1
   17    16    18    1
   18    16    19    1
   19    19    20    1
   20    19    21    1
   21    19    22    1
@<TRIPOS>SUBSTRUCTURE
       1 MOL1            1 RESIDUE      1      MOL     
@<SCITEGIC>MOL_PROPERTY
VConf Rank
SciTegic.value.IntegerValue
16

@<SCITEGIC>MOL_PROPERTY
Conf_Id
SciTegic.value.IntegerValue
70

@<SCITEGIC>MOL_PROPERTY
Delta U+W
SciTegic.value.DoubleValue
1.803

@<SCITEGIC>MOL_PROPERTY
U+W
SciTegic.value.DoubleValue
-51.356

@<SCITEGIC>MOL_PROPERTY
Grad RMS
SciTegic.value.DoubleValue
0.000000

@<SCITEGIC>MOL_PROPERTY
U
SciTegic.value.DoubleValue
10.428

@<SCITEGIC>MOL_PROPERTY
W
SciTegic.value.DoubleValue
-61.784

@<SCITEGIC>MOL_PROPERTY
W(PB)
SciTegic.value.DoubleValue
-64.014

@<SCITEGIC>MOL_PROPERTY
W(SA)
SciTegic.value.DoubleValue
2.230

@<SCITEGIC>MOL_PROPERTY
Valence
SciTegic.value.DoubleValue
8.445

@<SCITEGIC>MOL_PROPERTY
Coulomb
SciTegic.value.DoubleValue
1.306

@<SCITEGIC>MOL_PROPERTY
VdW
SciTegic.value.DoubleValue
0.676

@<SCITEGIC>MOL_PROPERTY
VdW6
SciTegic.value.DoubleValue
-8.929

@<SCITEGIC>MOL_PROPERTY
VdW12
SciTegic.value.DoubleValue
9.605

@<SCITEGIC>MOL_PROPERTY
Bond
SciTegic.value.DoubleValue
0.209

@<SCITEGIC>MOL_PROPERTY
Angle
SciTegic.value.DoubleValue
3.066

@<SCITEGIC>MOL_PROPERTY
Pdih
SciTegic.value.DoubleValue
5.170

@<SCITEGIC>MOL_PROPERTY
Idih
SciTegic.value.DoubleValue
0.001

@<SCITEGIC>MOL_PROPERTY
Tether
SciTegic.value.DoubleValue
0.000

@<TRIPOS>MOLECULE
guest-s21_confgen4.mol2 : confsearch ligand conformer 17
          22          21           1
SMALL
USER_CHARGES
 
@<TRIPOS>ATOM
       1    C1      20.039947   19.147241   25.694230 C.2        1 MOL1         0.6145
       2    O1      20.766063   20.105328   25.872381 O.co2      1 MOL1        -0.6735
       3    O2      20.292866   18.028185   26.095010 O.co2      1 MOL1        -0.6735
       4    C2      18.729293   19.368019   24.944204 C.3        1 MOL1        -0.1985
       5    H1      18.268025   20.276374   25.349373 H          1 MOL1         0.0740
       6    H2      18.050341   18.537888   25.173871 H          1 MOL1         0.0740
       7    C3      18.898906   19.513512   23.409589 C.3        1 MOL1        -0.1882
       8    H3      17.933744   19.797984   22.969357 H          1 MOL1         0.0742
       9    H4      19.596445   20.336573   23.205526 H          1 MOL1         0.0742
      10    C4      19.399897   18.209811   22.743304 C.3        1 MOL1        -0.1880
      11    H5      18.736332   17.383450   23.032525 H          1 MOL1         0.0742
      12    H6      20.397263   17.954031   23.126894 H          1 MOL1         0.0742
      13    C5      19.445705   18.285559   21.198735 C.3        1 MOL1        -0.1880
      14    H7      19.690768   17.288223   20.808663 H          1 MOL1         0.0742
      15    H8      18.447699   18.533526   20.812262 H          1 MOL1         0.0742
      16    C6      20.479456   19.301537   20.662717 C.3        1 MOL1        -0.1856
      17    H9      21.467872   19.085320   21.091147 H          1 MOL1         0.0742
      18    H10     20.209210   20.318054   20.977389 H          1 MOL1         0.0742
      19    C7      20.567868   19.259809   19.123830 C.3        1 MOL1        -0.2871
      20    H11     20.874401   18.265209   18.774316 H          1 MOL1         0.0754
      21    H12     21.303268   19.988522   18.758832 H          1 MOL1         0.0754
      22    H13     19.598084   19.499643   18.668450 H          1 MOL1         0.0754
@<TRIPOS>BOND
    1     1     2    1
    2     1     3    2
    3     1     4    1
    4     4     5    1
    5     4     6    1
    6     4     7    1
    7     7     8    1
    8     7     9    1
    9     7    10    1
   10    10    11    1
   11    10    12    1
   12    10    13    1
   13    13    14    1
   14    13    15    1
   15    13    16    1
   16    16    17    1
   17    16    18    1
   18    16    19    1
   19    19    20    1
   20    19    21    1
   21    19    22    1
@<TRIPOS>SUBSTRUCTURE
       1 MOL1            1 RESIDUE      1      MOL     
@<SCITEGIC>MOL_PROPERTY
VConf Rank
SciTegic.value.IntegerValue
17

@<SCITEGIC>MOL_PROPERTY
Conf_Id
SciTegic.value.IntegerValue
85

@<SCITEGIC>MOL_PROPERTY
Delta U+W
SciTegic.value.DoubleValue
0.707

@<SCITEGIC>MOL_PROPERTY
U+W
SciTegic.value.DoubleValue
-52.452

@<SCITEGIC>MOL_PROPERTY
Grad RMS
SciTegic.value.DoubleValue
0.000000

@<SCITEGIC>MOL_PROPERTY
U
SciTegic.value.DoubleValue
8.925

@<SCITEGIC>MOL_PROPERTY
W
SciTegic.value.DoubleValue
-61.378

@<SCITEGIC>MOL_PROPERTY
W(PB)
SciTegic.value.DoubleValue
-63.661

@<SCITEGIC>MOL_PROPERTY
W(SA)
SciTegic.value.DoubleValue
2.283

@<SCITEGIC>MOL_PROPERTY
Valence
SciTegic.value.DoubleValue
7.881

@<SCITEGIC>MOL_PROPERTY
Coulomb
SciTegic.value.DoubleValue
0.349

@<SCITEGIC>MOL_PROPERTY
VdW
SciTegic.value.DoubleValue
0.695

@<SCITEGIC>MOL_PROPERTY
VdW6
SciTegic.value.DoubleValue
-8.049

@<SCITEGIC>MOL_PROPERTY
VdW12
SciTegic.value.DoubleValue
8.743

@<SCITEGIC>MOL_PROPERTY
Bond
SciTegic.value.DoubleValue
0.156

@<SCITEGIC>MOL_PROPERTY
Angle
SciTegic.value.DoubleValue
2.660

@<SCITEGIC>MOL_PROPERTY
Pdih
SciTegic.value.DoubleValue
5.064

@<SCITEGIC>MOL_PROPERTY
Idih
SciTegic.value.DoubleValue
0.001

@<SCITEGIC>MOL_PROPERTY
Tether
SciTegic.value.DoubleValue
0.000

@<TRIPOS>MOLECULE
guest-s21_confgen4.mol2 : confsearch ligand conformer 18
          22          21           1
SMALL
USER_CHARGES
 
@<TRIPOS>ATOM
       1    C1      19.750934   19.054614   25.711421 C.2        1 MOL1         0.6145
       2    O1      20.681003   19.684737   26.174949 O.co2      1 MOL1        -0.6735
       3    O2      18.594184   19.220248   26.045287 O.co2      1 MOL1        -0.6735
       4    C2      20.052324   17.980270   24.670102 C.3        1 MOL1        -0.1985
       5    H1      19.489060   17.083431   24.953656 H          1 MOL1         0.0740
       6    H2      21.115917   17.719924   24.732109 H          1 MOL1         0.0740
       7    C3      19.683797   18.384483   23.218728 C.3        1 MOL1        -0.1882
       8    H3      19.788249   17.500677   22.576947 H          1 MOL1         0.0742
       9    H4      18.628373   18.687684   23.180957 H          1 MOL1         0.0742
      10    C4      20.578040   19.521530   22.672344 C.3        1 MOL1        -0.1880
      11    H5      21.620959   19.178736   22.633460 H          1 MOL1         0.0742
      12    H6      20.558864   20.365220   23.375665 H          1 MOL1         0.0742
      13    C5      20.156369   20.048178   21.277582 C.3        1 MOL1        -0.1880
      14    H7      19.146954   20.478923   21.327253 H          1 MOL1         0.0742
      15    H8      20.824332   20.882873   21.024645 H          1 MOL1         0.0742
      16    C6      20.238545   19.003144   20.136945 C.3        1 MOL1        -0.1856
      17    H9      21.002974   18.247925   20.366080 H          1 MOL1         0.0742
      18    H10     20.574167   19.508849   19.221021 H          1 MOL1         0.0742
      19    C7      18.884805   18.321795   19.836642 C.3        1 MOL1        -0.2871
      20    H11     18.496560   17.782668   20.708142 H          1 MOL1         0.0754
      21    H12     18.991864   17.600218   19.016469 H          1 MOL1         0.0754
      22    H13     18.133449   19.063218   19.535242 H          1 MOL1         0.0754
@<TRIPOS>BOND
    1     1     2    1
    2     1     3    2
    3     1     4    1
    4     4     5    1
    5     4     6    1
    6     4     7    1
    7     7     8    1
    8     7     9    1
    9     7    10    1
   10    10    11    1
   11    10    12    1
   12    10    13    1
   13    13    14    1
   14    13    15    1
   15    13    16    1
   16    16    17    1
   17    16    18    1
   18    16    19    1
   19    19    20    1
   20    19    21    1
   21    19    22    1
@<TRIPOS>SUBSTRUCTURE
       1 MOL1            1 RESIDUE      1      MOL     
@<SCITEGIC>MOL_PROPERTY
VConf Rank
SciTegic.value.IntegerValue
18

@<SCITEGIC>MOL_PROPERTY
Conf_Id
SciTegic.value.IntegerValue
82

@<SCITEGIC>MOL_PROPERTY
Delta U+W
SciTegic.value.DoubleValue
3.438

@<SCITEGIC>MOL_PROPERTY
U+W
SciTegic.value.DoubleValue
-49.721

@<SCITEGIC>MOL_PROPERTY
Grad RMS
SciTegic.value.DoubleValue
0.000000

@<SCITEGIC>MOL_PROPERTY
U
SciTegic.value.DoubleValue
11.773

@<SCITEGIC>MOL_PROPERTY
W
SciTegic.value.DoubleValue
-61.495

@<SCITEGIC>MOL_PROPERTY
W(PB)
SciTegic.value.DoubleValue
-63.749

@<SCITEGIC>MOL_PROPERTY
W(SA)
SciTegic.value.DoubleValue
2.254

@<SCITEGIC>MOL_PROPERTY
Valence
SciTegic.value.DoubleValue
10.419

@<SCITEGIC>MOL_PROPERTY
Coulomb
SciTegic.value.DoubleValue
0.565

@<SCITEGIC>MOL_PROPERTY
VdW
SciTegic.value.DoubleValue
0.789

@<SCITEGIC>MOL_PROPERTY
VdW6
SciTegic.value.DoubleValue
-8.847

@<SCITEGIC>MOL_PROPERTY
VdW12
SciTegic.value.DoubleValue
9.636

@<SCITEGIC>MOL_PROPERTY
Bond
SciTegic.value.DoubleValue
0.200

@<SCITEGIC>MOL_PROPERTY
Angle
SciTegic.value.DoubleValue
3.187

@<SCITEGIC>MOL_PROPERTY
Pdih
SciTegic.value.DoubleValue
7.032

@<SCITEGIC>MOL_PROPERTY
Idih
SciTegic.value.DoubleValue
0.001

@<SCITEGIC>MOL_PROPERTY
Tether
SciTegic.value.DoubleValue
0.000

@<TRIPOS>MOLECULE
guest-s21_confgen4.mol2 : confsearch ligand conformer 19
          22          21           1
SMALL
USER_CHARGES
 
@<TRIPOS>ATOM
       1    C1      19.945730   19.161369   25.707566 C.2        1 MOL1         0.6145
       2    O1      20.551518   20.171320   26.007552 O.co2      1 MOL1        -0.6735
       3    O2      18.883764   18.842000   26.204728 O.co2      1 MOL1        -0.6735
       4    C2      20.565458   18.233278   24.666421 C.3        1 MOL1        -0.1985
       5    H1      20.102114   17.243478   24.758427 H          1 MOL1         0.0740
       6    H2      21.624161   18.113293   24.924769 H          1 MOL1         0.0740
       7    C3      20.444522   18.747583   23.208149 C.3        1 MOL1        -0.1882
       8    H3      20.870035   19.758377   23.140991 H          1 MOL1         0.0742
       9    H4      21.049955   18.099594   22.562032 H          1 MOL1         0.0742
      10    C4      18.984353   18.756227   22.699312 C.3        1 MOL1        -0.1880
      11    H5      18.358217   19.313798   23.409177 H          1 MOL1         0.0742
      12    H6      18.595499   17.728905   22.689129 H          1 MOL1         0.0742
      13    C5      18.802959   19.389795   21.297095 C.3        1 MOL1        -0.1880
      14    H7      17.727693   19.389845   21.071997 H          1 MOL1         0.0742
      15    H8      19.102612   20.446496   21.319858 H          1 MOL1         0.0742
      16    C6      19.534861   18.648852   20.150264 C.3        1 MOL1        -0.1856
      17    H9      18.906926   18.688831   19.249488 H          1 MOL1         0.0742
      18    H10     19.648667   17.583977   20.395828 H          1 MOL1         0.0742
      19    C7      20.906836   19.268576   19.802913 C.3        1 MOL1        -0.2871
      20    H11     20.793671   20.313299   19.485370 H          1 MOL1         0.0754
      21    H12     21.379780   18.717219   18.980024 H          1 MOL1         0.0754
      22    H13     21.592639   19.247769   20.657398 H          1 MOL1         0.0754
@<TRIPOS>BOND
    1     1     2    1
    2     1     3    2
    3     1     4    1
    4     4     5    1
    5     4     6    1
    6     4     7    1
    7     7     8    1
    8     7     9    1
    9     7    10    1
   10    10    11    1
   11    10    12    1
   12    10    13    1
   13    13    14    1
   14    13    15    1
   15    13    16    1
   16    16    17    1
   17    16    18    1
   18    16    19    1
   19    19    20    1
   20    19    21    1
   21    19    22    1
@<TRIPOS>SUBSTRUCTURE
       1 MOL1            1 RESIDUE      1      MOL     
@<SCITEGIC>MOL_PROPERTY
VConf Rank
SciTegic.value.IntegerValue
19

@<SCITEGIC>MOL_PROPERTY
Conf_Id
SciTegic.value.IntegerValue
94

@<SCITEGIC>MOL_PROPERTY
Delta U+W
SciTegic.value.DoubleValue
3.471

@<SCITEGIC>MOL_PROPERTY
U+W
SciTegic.value.DoubleValue
-49.688

@<SCITEGIC>MOL_PROPERTY
Grad RMS
SciTegic.value.DoubleValue
0.000000

@<SCITEGIC>MOL_PROPERTY
U
SciTegic.value.DoubleValue
11.773

@<SCITEGIC>MOL_PROPERTY
W
SciTegic.value.DoubleValue
-61.461

@<SCITEGIC>MOL_PROPERTY
W(PB)
SciTegic.value.DoubleValue
-63.710

@<SCITEGIC>MOL_PROPERTY
W(SA)
SciTegic.value.DoubleValue
2.248

@<SCITEGIC>MOL_PROPERTY
Valence
SciTegic.value.DoubleValue
10.419

@<SCITEGIC>MOL_PROPERTY
Coulomb
SciTegic.value.DoubleValue
0.566

@<SCITEGIC>MOL_PROPERTY
VdW
SciTegic.value.DoubleValue
0.789

@<SCITEGIC>MOL_PROPERTY
VdW6
SciTegic.value.DoubleValue
-8.847

@<SCITEGIC>MOL_PROPERTY
VdW12
SciTegic.value.DoubleValue
9.636

@<SCITEGIC>MOL_PROPERTY
Bond
SciTegic.value.DoubleValue
0.200

@<SCITEGIC>MOL_PROPERTY
Angle
SciTegic.value.DoubleValue
3.187

@<SCITEGIC>MOL_PROPERTY
Pdih
SciTegic.value.DoubleValue
7.032

@<SCITEGIC>MOL_PROPERTY
Idih
SciTegic.value.DoubleValue
0.001

@<SCITEGIC>MOL_PROPERTY
Tether
SciTegic.value.DoubleValue
0.000

@<TRIPOS>MOLECULE
guest-s21_confgen4.mol2 : confsearch ligand conformer 20
          22          21           1
SMALL
USER_CHARGES
 
@<TRIPOS>ATOM
       1    C1      19.869151   18.855092   25.682127 C.2        1 MOL1         0.6145
       2    O1      20.020047   19.687935   26.554080 O.co2      1 MOL1        -0.6735
       3    O2      20.188314   17.688906   25.803456 O.co2      1 MOL1        -0.6735
       4    C2      19.263854   19.302512   24.356471 C.3        1 MOL1        -0.1985
       5    H1      18.551673   20.110446   24.562072 H          1 MOL1         0.0740
       6    H2      18.692792   18.460438   23.949244 H          1 MOL1         0.0740
       7    C3      20.332781   19.777801   23.338654 C.3        1 MOL1        -0.1882
       8    H3      20.940445   20.564569   23.806455 H          1 MOL1         0.0742
       9    H4      21.022578   18.952462   23.117697 H          1 MOL1         0.0742
      10    C4      19.730416   20.334788   22.024373 C.3        1 MOL1        -0.1880
      11    H5      20.546508   20.695991   21.384842 H          1 MOL1         0.0742
      12    H6      19.123714   21.219690   22.259761 H          1 MOL1         0.0742
      13    C5      18.856236   19.334662   21.222672 C.3        1 MOL1        -0.1880
      14    H7      17.952349   19.098502   21.799273 H          1 MOL1         0.0742
      15    H8      18.503316   19.832598   20.309407 H          1 MOL1         0.0742
      16    C6      19.560007   18.012612   20.829202 C.3        1 MOL1        -0.1856
      17    H9      18.840358   17.378763   20.293246 H          1 MOL1         0.0742
      18    H10     19.845304   17.453334   21.730210 H          1 MOL1         0.0742
      19    C7      20.799195   18.224691   19.932965 C.3        1 MOL1        -0.2871
      20    H11     20.539592   18.796861   19.032864 H          1 MOL1         0.0754
      21    H12     21.212136   17.259234   19.613408 H          1 MOL1         0.0754
      22    H13     21.590399   18.764477   20.468299 H          1 MOL1         0.0754
@<TRIPOS>BOND
    1     1     2    1
    2     1     3    2
    3     1     4    1
    4     4     5    1
    5     4     6    1
    6     4     7    1
    7     7     8    1
    8     7     9    1
    9     7    10    1
   10    10    11    1
   11    10    12    1
   12    10    13    1
   13    13    14    1
   14    13    15    1
   15    13    16    1
   16    16    17    1
   17    16    18    1
   18    16    19    1
   19    19    20    1
   20    19    21    1
   21    19    22    1
@<TRIPOS>SUBSTRUCTURE
       1 MOL1            1 RESIDUE      1      MOL     
@<SCITEGIC>MOL_PROPERTY
VConf Rank
SciTegic.value.IntegerValue
20

@<SCITEGIC>MOL_PROPERTY
Conf_Id
SciTegic.value.IntegerValue
56

@<SCITEGIC>MOL_PROPERTY
Delta U+W
SciTegic.value.DoubleValue
0.853

@<SCITEGIC>MOL_PROPERTY
U+W
SciTegic.value.DoubleValue
-52.307

@<SCITEGIC>MOL_PROPERTY
Grad RMS
SciTegic.value.DoubleValue
0.000000

@<SCITEGIC>MOL_PROPERTY
U
SciTegic.value.DoubleValue
8.874

@<SCITEGIC>MOL_PROPERTY
W
SciTegic.value.DoubleValue
-61.181

@<SCITEGIC>MOL_PROPERTY
W(PB)
SciTegic.value.DoubleValue
-63.413

@<SCITEGIC>MOL_PROPERTY
W(SA)
SciTegic.value.DoubleValue
2.232

@<SCITEGIC>MOL_PROPERTY
Valence
SciTegic.value.DoubleValue
8.479

@<SCITEGIC>MOL_PROPERTY
Coulomb
SciTegic.value.DoubleValue
-0.357

@<SCITEGIC>MOL_PROPERTY
VdW
SciTegic.value.DoubleValue
0.753

@<SCITEGIC>MOL_PROPERTY
VdW6
SciTegic.value.DoubleValue
-9.081

@<SCITEGIC>MOL_PROPERTY
VdW12
SciTegic.value.DoubleValue
9.833

@<SCITEGIC>MOL_PROPERTY
Bond
SciTegic.value.DoubleValue
0.221

@<SCITEGIC>MOL_PROPERTY
Angle
SciTegic.value.DoubleValue
3.208

@<SCITEGIC>MOL_PROPERTY
Pdih
SciTegic.value.DoubleValue
5.050

@<SCITEGIC>MOL_PROPERTY
Idih
SciTegic.value.DoubleValue
0.000

@<SCITEGIC>MOL_PROPERTY
Tether
SciTegic.value.DoubleValue
0.000

@<TRIPOS>MOLECULE
guest-s21_confgen4.mol2 : confsearch ligand conformer 21
          22          21           1
SMALL
USER_CHARGES
 
@<TRIPOS>ATOM
       1    C1      22.456963   19.079969   19.076885 C.2        1 MOL1         0.6145
       2    O1      23.075721   18.113739   19.479302 O.co2      1 MOL1        -0.6735
       3    O2      22.753450   19.683157   18.064867 O.co2      1 MOL1        -0.6735
       4    C2      21.243560   19.584117   19.859838 C.3        1 MOL1        -0.1985
       5    H1      20.385723   19.571538   19.177251 H          1 MOL1         0.0740
       6    H2      21.433323   20.632718   20.117506 H          1 MOL1         0.0740
       7    C3      20.903651   18.781799   21.144033 C.3        1 MOL1        -0.1882
       8    H3      20.720815   17.731015   20.879623 H          1 MOL1         0.0742
       9    H4      21.769286   18.793306   21.820816 H          1 MOL1         0.0742
      10    C4      19.668496   19.357179   21.870560 C.3        1 MOL1        -0.1880
      11    H5      18.804455   19.344653   21.192028 H          1 MOL1         0.0742
      12    H6      19.853583   20.407706   22.133744 H          1 MOL1         0.0742
      13    C5      19.332202   18.557715   23.147694 C.3        1 MOL1        -0.1880
      14    H7      19.147085   17.507069   22.885016 H          1 MOL1         0.0742
      15    H8      20.195973   18.569989   23.826572 H          1 MOL1         0.0742
      16    C6      18.097956   19.132116   23.874194 C.3        1 MOL1        -0.1856
      17    H9      17.231280   19.119540   23.198775 H          1 MOL1         0.0742
      18    H10     18.280200   20.182564   24.140316 H          1 MOL1         0.0742
      19    C7      17.765503   18.331050   25.148990 C.3        1 MOL1        -0.2871
      20    H11     17.547742   17.282235   24.908207 H          1 MOL1         0.0754
      21    H12     16.885959   18.752821   25.652581 H          1 MOL1         0.0754
      22    H13     18.604483   18.353282   25.856823 H          1 MOL1         0.0754
@<TRIPOS>BOND
    1     1     2    1
    2     1     3    2
    3     1     4    1
    4     4     5    1
    5     4     6    1
    6     4     7    1
    7     7     8    1
    8     7     9    1
    9     7    10    1
   10    10    11    1
   11    10    12    1
   12    10    13    1
   13    13    14    1
   14    13    15    1
   15    13    16    1
   16    16    17    1
   17    16    18    1
   18    16    19    1
   19    19    20    1
   20    19    21    1
   21    19    22    1
@<TRIPOS>SUBSTRUCTURE
       1 MOL1            1 RESIDUE      1      MOL     
@<SCITEGIC>MOL_PROPERTY
VConf Rank
SciTegic.value.IntegerValue
21

@<SCITEGIC>MOL_PROPERTY
Conf_Id
SciTegic.value.IntegerValue
0

@<SCITEGIC>MOL_PROPERTY
Delta U+W
SciTegic.value.DoubleValue
0.000

@<SCITEGIC>MOL_PROPERTY
U+W
SciTegic.value.DoubleValue
-53.159

@<SCITEGIC>MOL_PROPERTY
Grad RMS
SciTegic.value.DoubleValue
0.000000

@<SCITEGIC>MOL_PROPERTY
U
SciTegic.value.DoubleValue
6.763

@<SCITEGIC>MOL_PROPERTY
W
SciTegic.value.DoubleValue
-59.922

@<SCITEGIC>MOL_PROPERTY
W(PB)
SciTegic.value.DoubleValue
-62.256

@<SCITEGIC>MOL_PROPERTY
W(SA)
SciTegic.value.DoubleValue
2.334

@<SCITEGIC>MOL_PROPERTY
Valence
SciTegic.value.DoubleValue
7.600

@<SCITEGIC>MOL_PROPERTY
Coulomb
SciTegic.value.DoubleValue
-2.139

@<SCITEGIC>MOL_PROPERTY
VdW
SciTegic.value.DoubleValue
1.302

@<SCITEGIC>MOL_PROPERTY
VdW6
SciTegic.value.DoubleValue
-6.786

@<SCITEGIC>MOL_PROPERTY
VdW12
SciTegic.value.DoubleValue
8.088

@<SCITEGIC>MOL_PROPERTY
Bond
SciTegic.value.DoubleValue
0.134

@<SCITEGIC>MOL_PROPERTY
Angle
SciTegic.value.DoubleValue
2.720

@<SCITEGIC>MOL_PROPERTY
Pdih
SciTegic.value.DoubleValue
4.746

@<SCITEGIC>MOL_PROPERTY
Idih
SciTegic.value.DoubleValue
0.000

@<SCITEGIC>MOL_PROPERTY
Tether
SciTegic.value.DoubleValue
0.000

@<TRIPOS>MOLECULE
guest-s21_confgen4.mol2 : confsearch ligand conformer 22
          22          21           1
SMALL
USER_CHARGES
 
@<TRIPOS>ATOM
       1    C1      19.311766   17.104069   18.641621 C.2        1 MOL1         0.6145
       2    O1      18.153196   16.979250   18.297284 O.co2      1 MOL1        -0.6735
       3    O2      20.182317   16.297795   18.379909 O.co2      1 MOL1        -0.6735
       4    C2      19.689537   18.328994   19.466884 C.3        1 MOL1        -0.1985
       5    H1      19.050386   19.162541   19.151689 H          1 MOL1         0.0740
       6    H2      20.722695   18.601101   19.219491 H          1 MOL1         0.0740
       7    C3      19.548952   18.094319   20.991094 C.3        1 MOL1        -0.1882
       8    H3      18.512504   17.810144   21.220421 H          1 MOL1         0.0742
       9    H4      20.184762   17.248723   21.288222 H          1 MOL1         0.0742
      10    C4      19.936993   19.348321   21.803980 C.3        1 MOL1        -0.1880
      11    H5      19.300414   20.191978   21.503675 H          1 MOL1         0.0742
      12    H6      20.973098   19.630441   21.571461 H          1 MOL1         0.0742
      13    C5      19.795904   19.111409   23.322947 C.3        1 MOL1        -0.1880
      14    H7      18.759923   18.829252   23.555877 H          1 MOL1         0.0742
      15    H8      20.432329   18.267807   23.623656 H          1 MOL1         0.0742
      16    C6      20.183544   20.364263   24.136065 C.3        1 MOL1        -0.1856
      17    H9      19.547633   21.209904   23.839442 H          1 MOL1         0.0742
      18    H10     21.220041   20.648474   23.907211 H          1 MOL1         0.0742
      19    C7      20.041312   20.123623   25.652378 C.3        1 MOL1        -0.2871
      20    H11     20.691157   19.302544   25.982437 H          1 MOL1         0.0754
      21    H12     19.006143   19.868040   25.914121 H          1 MOL1         0.0754
      22    H13     20.320672   21.023988   26.214866 H          1 MOL1         0.0754
@<TRIPOS>BOND
    1     1     2    1
    2     1     3    2
    3     1     4    1
    4     4     5    1
    5     4     6    1
    6     4     7    1
    7     7     8    1
    8     7     9    1
    9     7    10    1
   10    10    11    1
   11    10    12    1
   12    10    13    1
   13    13    14    1
   14    13    15    1
   15    13    16    1
   16    16    17    1
   17    16    18    1
   18    16    19    1
   19    19    20    1
   20    19    21    1
   21    19    22    1
@<TRIPOS>SUBSTRUCTURE
       1 MOL1            1 RESIDUE      1      MOL     
@<SCITEGIC>MOL_PROPERTY
VConf Rank
SciTegic.value.IntegerValue
22

@<SCITEGIC>MOL_PROPERTY
Conf_Id
SciTegic.value.IntegerValue
10

@<SCITEGIC>MOL_PROPERTY
Delta U+W
SciTegic.value.DoubleValue
-1.291

@<SCITEGIC>MOL_PROPERTY
U+W
SciTegic.value.DoubleValue
-54.451

@<SCITEGIC>MOL_PROPERTY
Grad RMS
SciTegic.value.DoubleValue
0.000000

@<SCITEGIC>MOL_PROPERTY
U
SciTegic.value.DoubleValue
5.779

@<SCITEGIC>MOL_PROPERTY
W
SciTegic.value.DoubleValue
-60.230

@<SCITEGIC>MOL_PROPERTY
W(PB)
SciTegic.value.DoubleValue
-62.557

@<SCITEGIC>MOL_PROPERTY
W(SA)
SciTegic.value.DoubleValue
2.328

@<SCITEGIC>MOL_PROPERTY
Valence
SciTegic.value.DoubleValue
7.101

@<SCITEGIC>MOL_PROPERTY
Coulomb
SciTegic.value.DoubleValue
-2.079

@<SCITEGIC>MOL_PROPERTY
VdW
SciTegic.value.DoubleValue
0.757

@<SCITEGIC>MOL_PROPERTY
VdW6
SciTegic.value.DoubleValue
-6.496

@<SCITEGIC>MOL_PROPERTY
VdW12
SciTegic.value.DoubleValue
7.253

@<SCITEGIC>MOL_PROPERTY
Bond
SciTegic.value.DoubleValue
0.100

@<SCITEGIC>MOL_PROPERTY
Angle
SciTegic.value.DoubleValue
2.262

@<SCITEGIC>MOL_PROPERTY
Pdih
SciTegic.value.DoubleValue
4.738

@<SCITEGIC>MOL_PROPERTY
Idih
SciTegic.value.DoubleValue
0.001

@<SCITEGIC>MOL_PROPERTY
Tether
SciTegic.value.DoubleValue
0.000

@<TRIPOS>MOLECULE
guest-s21_confgen4.mol2 : confsearch ligand conformer 23
          22          21           1
SMALL
USER_CHARGES
 
@<TRIPOS>ATOM
       1    C1      19.544223   21.047300   18.961837 C.2        1 MOL1         0.6145
       2    O1      20.462774   20.865471   18.187463 O.co2      1 MOL1        -0.6735
       3    O2      18.432165   21.395077   18.617114 O.co2      1 MOL1        -0.6735
       4    C2      19.795135   20.805351   20.445991 C.3        1 MOL1        -0.1985
       5    H1      19.166179   21.500019   21.015637 H          1 MOL1         0.0740
       6    H2      20.839283   21.062311   20.661362 H          1 MOL1         0.0740
       7    C3      19.504291   19.346213   20.875498 C.3        1 MOL1        -0.1882
       8    H3      18.459215   19.100705   20.640864 H          1 MOL1         0.0742
       9    H4      20.132477   18.662674   20.287528 H          1 MOL1         0.0742
      10    C4      19.765895   19.127229   22.381471 C.3        1 MOL1        -0.1880
      11    H5      19.135160   19.810265   22.966698 H          1 MOL1         0.0742
      12    H6      20.809846   19.382004   22.606022 H          1 MOL1         0.0742
      13    C5      19.477663   17.668354   22.804398 C.3        1 MOL1        -0.1880
      14    H7      18.452377   17.406551   22.509134 H          1 MOL1         0.0742
      15    H8      20.142729   16.986018   22.257552 H          1 MOL1         0.0742
      16    C6      19.627081   17.428016   24.324667 C.3        1 MOL1        -0.1856
      17    H9      19.292747   16.406935   24.554557 H          1 MOL1         0.0742
      18    H10     18.958557   18.104543   24.874845 H          1 MOL1         0.0742
      19    C7      21.075005   17.602698   24.831829 C.3        1 MOL1        -0.2871
      20    H11     21.144317   17.335460   25.894232 H          1 MOL1         0.0754
      21    H12     21.413418   18.641176   24.728183 H          1 MOL1         0.0754
      22    H13     21.766883   16.957274   24.275171 H          1 MOL1         0.0754
@<TRIPOS>BOND
    1     1     2    1
    2     1     3    2
    3     1     4    1
    4     4     5    1
    5     4     6    1
    6     4     7    1
    7     7     8    1
    8     7     9    1
    9     7    10    1
   10    10    11    1
   11    10    12    1
   12    10    13    1
   13    13    14    1
   14    13    15    1
   15    13    16    1
   16    16    17    1
   17    16    18    1
   18    16    19    1
   19    19    20    1
   20    19    21    1
   21    19    22    1
@<TRIPOS>SUBSTRUCTURE
       1 MOL1            1 RESIDUE      1      MOL     
@<SCITEGIC>MOL_PROPERTY
VConf Rank
SciTegic.value.IntegerValue
23

@<SCITEGIC>MOL_PROPERTY
Conf_Id
SciTegic.value.IntegerValue
37

@<SCITEGIC>MOL_PROPERTY
Delta U+W
SciTegic.value.DoubleValue
-0.345

@<SCITEGIC>MOL_PROPERTY
U+W
SciTegic.value.DoubleValue
-53.504

@<SCITEGIC>MOL_PROPERTY
Grad RMS
SciTegic.value.DoubleValue
0.000000

@<SCITEGIC>MOL_PROPERTY
U
SciTegic.value.DoubleValue
6.751

@<SCITEGIC>MOL_PROPERTY
W
SciTegic.value.DoubleValue
-60.255

@<SCITEGIC>MOL_PROPERTY
W(PB)
SciTegic.value.DoubleValue
-62.592

@<SCITEGIC>MOL_PROPERTY
W(SA)
SciTegic.value.DoubleValue
2.336

@<SCITEGIC>MOL_PROPERTY
Valence
SciTegic.value.DoubleValue
7.602

@<SCITEGIC>MOL_PROPERTY
Coulomb
SciTegic.value.DoubleValue
-1.744

@<SCITEGIC>MOL_PROPERTY
VdW
SciTegic.value.DoubleValue
0.894

@<SCITEGIC>MOL_PROPERTY
VdW6
SciTegic.value.DoubleValue
-7.110

@<SCITEGIC>MOL_PROPERTY
VdW12
SciTegic.value.DoubleValue
8.004

@<SCITEGIC>MOL_PROPERTY
Bond
SciTegic.value.DoubleValue
0.131

@<SCITEGIC>MOL_PROPERTY
Angle
SciTegic.value.DoubleValue
2.489

@<SCITEGIC>MOL_PROPERTY
Pdih
SciTegic.value.DoubleValue
4.982

@<SCITEGIC>MOL_PROPERTY
Idih
SciTegic.value.DoubleValue
0.001

@<SCITEGIC>MOL_PROPERTY
Tether
SciTegic.value.DoubleValue
0.000

@<TRIPOS>MOLECULE
guest-s21_confgen4.mol2 : confsearch ligand conformer 24
          22          21           1
SMALL
USER_CHARGES
 
@<TRIPOS>ATOM
       1    C1      19.426017   22.644075   20.896319 C.2        1 MOL1         0.6145
       2    O1      18.265477   22.978988   20.764287 O.co2      1 MOL1        -0.6735
       3    O2      20.340368   23.115942   20.249974 O.co2      1 MOL1        -0.6735
       4    C2      19.750094   21.556178   21.913996 C.3        1 MOL1        -0.1985
       5    H1      19.038584   21.643141   22.743964 H          1 MOL1         0.0740
       6    H2      20.748657   21.756499   22.320675 H          1 MOL1         0.0740
       7    C3      19.695076   20.131315   21.309931 C.3        1 MOL1        -0.1882
       8    H3      18.693163   19.950884   20.896213 H          1 MOL1         0.0742
       9    H4      20.403007   20.065166   20.472095 H          1 MOL1         0.0742
      10    C4      20.026938   19.048632   22.359700 C.3        1 MOL1        -0.1880
      11    H5      19.318902   19.128321   23.194865 H          1 MOL1         0.0742
      12    H6      21.029763   19.230224   22.769850 H          1 MOL1         0.0742
      13    C5      19.966869   17.627987   21.752721 C.3        1 MOL1        -0.1880
      14    H7      18.951089   17.424130   21.387248 H          1 MOL1         0.0742
      15    H8      20.627326   17.585749   20.875824 H          1 MOL1         0.0742
      16    C6      20.392848   16.518269   22.741851 C.3        1 MOL1        -0.1856
      17    H9      21.411084   16.715356   23.104702 H          1 MOL1         0.0742
      18    H10     20.435607   15.562326   22.201870 H          1 MOL1         0.0742
      19    C7      19.433526   16.368207   23.942432 C.3        1 MOL1        -0.2871
      20    H11     18.403020   16.200187   23.603372 H          1 MOL1         0.0754
      21    H12     19.445588   17.261582   24.579173 H          1 MOL1         0.0754
      22    H13     19.728222   15.513189   24.564540 H          1 MOL1         0.0754
@<TRIPOS>BOND
    1     1     2    1
    2     1     3    2
    3     1     4    1
    4     4     5    1
    5     4     6    1
    6     4     7    1
    7     7     8    1
    8     7     9    1
    9     7    10    1
   10    10    11    1
   11    10    12    1
   12    10    13    1
   13    13    14    1
   14    13    15    1
   15    13    16    1
   16    16    17    1
   17    16    18    1
   18    16    19    1
   19    19    20    1
   20    19    21    1
   21    19    22    1
@<TRIPOS>SUBSTRUCTURE
       1 MOL1            1 RESIDUE      1      MOL     
@<SCITEGIC>MOL_PROPERTY
VConf Rank
SciTegic.value.IntegerValue
24

@<SCITEGIC>MOL_PROPERTY
Conf_Id
SciTegic.value.IntegerValue
38

@<SCITEGIC>MOL_PROPERTY
Delta U+W
SciTegic.value.DoubleValue
-0.439

@<SCITEGIC>MOL_PROPERTY
U+W
SciTegic.value.DoubleValue
-53.598

@<SCITEGIC>MOL_PROPERTY
Grad RMS
SciTegic.value.DoubleValue
0.000000

@<SCITEGIC>MOL_PROPERTY
U
SciTegic.value.DoubleValue
6.751

@<SCITEGIC>MOL_PROPERTY
W
SciTegic.value.DoubleValue
-60.350

@<SCITEGIC>MOL_PROPERTY
W(PB)
SciTegic.value.DoubleValue
-62.659

@<SCITEGIC>MOL_PROPERTY
W(SA)
SciTegic.value.DoubleValue
2.309

@<SCITEGIC>MOL_PROPERTY
Valence
SciTegic.value.DoubleValue
7.602

@<SCITEGIC>MOL_PROPERTY
Coulomb
SciTegic.value.DoubleValue
-1.744

@<SCITEGIC>MOL_PROPERTY
VdW
SciTegic.value.DoubleValue
0.893

@<SCITEGIC>MOL_PROPERTY
VdW6
SciTegic.value.DoubleValue
-7.110

@<SCITEGIC>MOL_PROPERTY
VdW12
SciTegic.value.DoubleValue
8.004

@<SCITEGIC>MOL_PROPERTY
Bond
SciTegic.value.DoubleValue
0.131

@<SCITEGIC>MOL_PROPERTY
Angle
SciTegic.value.DoubleValue
2.489

@<SCITEGIC>MOL_PROPERTY
Pdih
SciTegic.value.DoubleValue
4.981

@<SCITEGIC>MOL_PROPERTY
Idih
SciTegic.value.DoubleValue
0.001

@<SCITEGIC>MOL_PROPERTY
Tether
SciTegic.value.DoubleValue
0.000

@<TRIPOS>MOLECULE
guest-s21_confgen4.mol2 : confsearch ligand conformer 25
          22          21           1
SMALL
USER_CHARGES
 
@<TRIPOS>ATOM
       1    C1      22.715418   19.511396   19.805680 C.2        1 MOL1         0.6145
       2    O1      22.898206   18.811295   18.829459 O.co2      1 MOL1        -0.6735
       3    O2      23.581936   20.193365   20.316166 O.co2      1 MOL1        -0.6735
       4    C2      21.328288   19.516826   20.438238 C.3        1 MOL1        -0.1985
       5    H1      20.590769   19.362336   19.641611 H          1 MOL1         0.0740
       6    H2      21.155756   20.516400   20.852419 H          1 MOL1         0.0740
       7    C3      21.165571   18.432847   21.535564 C.3        1 MOL1        -0.1882
       8    H3      21.440793   17.458110   21.109433 H          1 MOL1         0.0742
       9    H4      21.875954   18.625894   22.351274 H          1 MOL1         0.0742
      10    C4      19.729682   18.335560   22.104316 C.3        1 MOL1        -0.1880
      11    H5      19.683313   17.456893   22.760154 H          1 MOL1         0.0742
      12    H6      19.021239   18.150958   21.285354 H          1 MOL1         0.0742
      13    C5      19.295642   19.592658   22.897622 C.3        1 MOL1        -0.1880
      14    H7      20.005183   19.778161   23.715450 H          1 MOL1         0.0742
      15    H8      19.338614   20.471635   22.242157 H          1 MOL1         0.0742
      16    C6      17.862092   19.493149   23.469592 C.3        1 MOL1        -0.1856
      17    H9      17.150497   19.296115   22.655896 H          1 MOL1         0.0742
      18    H10     17.584963   20.467872   23.894280 H          1 MOL1         0.0742
      19    C7      17.711248   18.415531   24.565329 C.3        1 MOL1        -0.2871
      20    H11     17.859287   17.406914   24.160112 H          1 MOL1         0.0754
      21    H12     16.705302   18.452238   25.003099 H          1 MOL1         0.0754
      22    H13     18.437204   18.572686   25.373670 H          1 MOL1         0.0754
@<TRIPOS>BOND
    1     1     2    1
    2     1     3    2
    3     1     4    1
    4     4     5    1
    5     4     6    1
    6     4     7    1
    7     7     8    1
    8     7     9    1
    9     7    10    1
   10    10    11    1
   11    10    12    1
   12    10    13    1
   13    13    14    1
   14    13    15    1
   15    13    16    1
   16    16    17    1
   17    16    18    1
   18    16    19    1
   19    19    20    1
   20    19    21    1
   21    19    22    1
@<TRIPOS>SUBSTRUCTURE
       1 MOL1            1 RESIDUE      1      MOL     
@<SCITEGIC>MOL_PROPERTY
VConf Rank
SciTegic.value.IntegerValue
25

@<SCITEGIC>MOL_PROPERTY
Conf_Id
SciTegic.value.IntegerValue
60

@<SCITEGIC>MOL_PROPERTY
Delta U+W
SciTegic.value.DoubleValue
0.386

@<SCITEGIC>MOL_PROPERTY
U+W
SciTegic.value.DoubleValue
-52.773

@<SCITEGIC>MOL_PROPERTY
Grad RMS
SciTegic.value.DoubleValue
0.000000

@<SCITEGIC>MOL_PROPERTY
U
SciTegic.value.DoubleValue
7.689

@<SCITEGIC>MOL_PROPERTY
W
SciTegic.value.DoubleValue
-60.463

@<SCITEGIC>MOL_PROPERTY
W(PB)
SciTegic.value.DoubleValue
-62.772

@<SCITEGIC>MOL_PROPERTY
W(SA)
SciTegic.value.DoubleValue
2.309

@<SCITEGIC>MOL_PROPERTY
Valence
SciTegic.value.DoubleValue
8.197

@<SCITEGIC>MOL_PROPERTY
Coulomb
SciTegic.value.DoubleValue
-1.561

@<SCITEGIC>MOL_PROPERTY
VdW
SciTegic.value.DoubleValue
1.053

@<SCITEGIC>MOL_PROPERTY
VdW6
SciTegic.value.DoubleValue
-7.737

@<SCITEGIC>MOL_PROPERTY
VdW12
SciTegic.value.DoubleValue
8.790

@<SCITEGIC>MOL_PROPERTY
Bond
SciTegic.value.DoubleValue
0.181

@<SCITEGIC>MOL_PROPERTY
Angle
SciTegic.value.DoubleValue
2.780

@<SCITEGIC>MOL_PROPERTY
Pdih
SciTegic.value.DoubleValue
5.235

@<SCITEGIC>MOL_PROPERTY
Idih
SciTegic.value.DoubleValue
0.001

@<SCITEGIC>MOL_PROPERTY
Tether
SciTegic.value.DoubleValue
0.000

@<TRIPOS>MOLECULE
guest-s21_confgen4.mol2 : confsearch ligand conformer 26
          22          21           1
SMALL
USER_CHARGES
 
@<TRIPOS>ATOM
       1    C1      16.781124   18.910798   20.041396 C.2        1 MOL1         0.6145
       2    O1      15.787050   19.093094   20.716021 O.co2      1 MOL1        -0.6735
       3    O2      16.757153   18.438517   18.922049 O.co2      1 MOL1        -0.6735
       4    C2      18.135100   19.273524   20.640950 C.3        1 MOL1        -0.1985
       5    H1      17.988269   20.142378   21.292100 H          1 MOL1         0.0740
       6    H2      18.795869   19.586588   19.823766 H          1 MOL1         0.0740
       7    C3      18.775966   18.100536   21.427718 C.3        1 MOL1        -0.1882
       8    H3      18.128973   17.827786   22.272883 H          1 MOL1         0.0742
       9    H4      18.817165   17.219500   20.772336 H          1 MOL1         0.0742
      10    C4      20.204889   18.402998   21.939008 C.3        1 MOL1        -0.1880
      11    H5      20.846850   18.683208   21.092818 H          1 MOL1         0.0742
      12    H6      20.621054   17.475206   22.351726 H          1 MOL1         0.0742
      13    C5      20.250062   19.511798   23.019071 C.3        1 MOL1        -0.1880
      14    H7      19.837094   20.441040   22.606705 H          1 MOL1         0.0742
      15    H8      19.606570   19.232327   23.864362 H          1 MOL1         0.0742
      16    C6      21.677893   19.810559   23.533029 C.3        1 MOL1        -0.1856
      17    H9      21.638402   20.692750   24.186806 H          1 MOL1         0.0742
      18    H10     22.327745   20.079410   22.688810 H          1 MOL1         0.0742
      19    C7      22.305034   18.639424   24.320298 C.3        1 MOL1        -0.2871
      20    H11     21.655198   18.330631   25.149444 H          1 MOL1         0.0754
      21    H12     23.273440   18.936784   24.743011 H          1 MOL1         0.0754
      22    H13     22.478552   17.769027   23.675530 H          1 MOL1         0.0754
@<TRIPOS>BOND
    1     1     2    1
    2     1     3    2
    3     1     4    1
    4     4     5    1
    5     4     6    1
    6     4     7    1
    7     7     8    1
    8     7     9    1
    9     7    10    1
   10    10    11    1
   11    10    12    1
   12    10    13    1
   13    13    14    1
   14    13    15    1
   15    13    16    1
   16    16    17    1
   17    16    18    1
   18    16    19    1
   19    19    20    1
   20    19    21    1
   21    19    22    1
@<TRIPOS>SUBSTRUCTURE
       1 MOL1            1 RESIDUE      1      MOL     
@<SCITEGIC>MOL_PROPERTY
VConf Rank
SciTegic.value.IntegerValue
26

@<SCITEGIC>MOL_PROPERTY
Conf_Id
SciTegic.value.IntegerValue
28

@<SCITEGIC>MOL_PROPERTY
Delta U+W
SciTegic.value.DoubleValue
0.351

@<SCITEGIC>MOL_PROPERTY
U+W
SciTegic.value.DoubleValue
-52.808

@<SCITEGIC>MOL_PROPERTY
Grad RMS
SciTegic.value.DoubleValue
0.000000

@<SCITEGIC>MOL_PROPERTY
U
SciTegic.value.DoubleValue
7.689

@<SCITEGIC>MOL_PROPERTY
W
SciTegic.value.DoubleValue
-60.498

@<SCITEGIC>MOL_PROPERTY
W(PB)
SciTegic.value.DoubleValue
-62.768

@<SCITEGIC>MOL_PROPERTY
W(SA)
SciTegic.value.DoubleValue
2.270

@<SCITEGIC>MOL_PROPERTY
Valence
SciTegic.value.DoubleValue
8.197

@<SCITEGIC>MOL_PROPERTY
Coulomb
SciTegic.value.DoubleValue
-1.561

@<SCITEGIC>MOL_PROPERTY
VdW
SciTegic.value.DoubleValue
1.053

@<SCITEGIC>MOL_PROPERTY
VdW6
SciTegic.value.DoubleValue
-7.737

@<SCITEGIC>MOL_PROPERTY
VdW12
SciTegic.value.DoubleValue
8.791

@<SCITEGIC>MOL_PROPERTY
Bond
SciTegic.value.DoubleValue
0.181

@<SCITEGIC>MOL_PROPERTY
Angle
SciTegic.value.DoubleValue
2.780

@<SCITEGIC>MOL_PROPERTY
Pdih
SciTegic.value.DoubleValue
5.235

@<SCITEGIC>MOL_PROPERTY
Idih
SciTegic.value.DoubleValue
0.001

@<SCITEGIC>MOL_PROPERTY
Tether
SciTegic.value.DoubleValue
0.000

@<TRIPOS>MOLECULE
guest-s21_confgen4.mol2 : confsearch ligand conformer 27
          22          21           1
SMALL
USER_CHARGES
 
@<TRIPOS>ATOM
       1    C1      23.447926   19.971997   21.726112 C.2        1 MOL1         0.6145
       2    O1      23.991257   19.587208   20.709648 O.co2      1 MOL1        -0.6735
       3    O2      23.556112   21.101461   22.160925 O.co2      1 MOL1        -0.6735
       4    C2      22.565623   18.988895   22.487278 C.3        1 MOL1        -0.1985
       5    H1      22.626109   19.232626   23.554792 H          1 MOL1         0.0740
       6    H2      22.986471   17.984309   22.359557 H          1 MOL1         0.0740
       7    C3      21.090554   19.015211   22.016362 C.3        1 MOL1        -0.1882
       8    H3      20.698679   20.033947   22.135018 H          1 MOL1         0.0742
       9    H4      21.047846   18.778070   20.944334 H          1 MOL1         0.0742
      10    C4      20.218261   18.013106   22.807533 C.3        1 MOL1        -0.1880
      11    H5      20.218505   18.281743   23.872814 H          1 MOL1         0.0742
      12    H6      20.670663   17.014326   22.738732 H          1 MOL1         0.0742
      13    C5      18.760810   17.926715   22.295738 C.3        1 MOL1        -0.1880
      14    H7      18.759986   17.654125   21.231490 H          1 MOL1         0.0742
      15    H8      18.253733   17.109018   22.825994 H          1 MOL1         0.0742
      16    C6      17.957254   19.230875   22.500085 C.3        1 MOL1        -0.1856
      17    H9      18.402880   20.045749   21.914630 H          1 MOL1         0.0742
      18    H10     18.002040   19.532320   23.555704 H          1 MOL1         0.0742
      19    C7      16.483925   19.058911   22.078846 C.3        1 MOL1        -0.2871
      20    H11     15.993973   18.275874   22.672274 H          1 MOL1         0.0754
      21    H12     16.408499   18.783659   21.018689 H          1 MOL1         0.0754
      22    H13     15.927791   19.993745   22.226733 H          1 MOL1         0.0754
@<TRIPOS>BOND
    1     1     2    1
    2     1     3    2
    3     1     4    1
    4     4     5    1
    5     4     6    1
    6     4     7    1
    7     7     8    1
    8     7     9    1
    9     7    10    1
   10    10    11    1
   11    10    12    1
   12    10    13    1
   13    13    14    1
   14    13    15    1
   15    13    16    1
   16    16    17    1
   17    16    18    1
   18    16    19    1
   19    19    20    1
   20    19    21    1
   21    19    22    1
@<TRIPOS>SUBSTRUCTURE
       1 MOL1            1 RESIDUE      1      MOL     
@<SCITEGIC>MOL_PROPERTY
VConf Rank
SciTegic.value.IntegerValue
27

@<SCITEGIC>MOL_PROPERTY
Conf_Id
SciTegic.value.IntegerValue
50

@<SCITEGIC>MOL_PROPERTY
Delta U+W
SciTegic.value.DoubleValue
-0.486

@<SCITEGIC>MOL_PROPERTY
U+W
SciTegic.value.DoubleValue
-53.646

@<SCITEGIC>MOL_PROPERTY
Grad RMS
SciTegic.value.DoubleValue
0.000000

@<SCITEGIC>MOL_PROPERTY
U
SciTegic.value.DoubleValue
7.026

@<SCITEGIC>MOL_PROPERTY
W
SciTegic.value.DoubleValue
-60.672

@<SCITEGIC>MOL_PROPERTY
W(PB)
SciTegic.value.DoubleValue
-62.964

@<SCITEGIC>MOL_PROPERTY
W(SA)
SciTegic.value.DoubleValue
2.292

@<SCITEGIC>MOL_PROPERTY
Valence
SciTegic.value.DoubleValue
7.637

@<SCITEGIC>MOL_PROPERTY
Coulomb
SciTegic.value.DoubleValue
-1.488

@<SCITEGIC>MOL_PROPERTY
VdW
SciTegic.value.DoubleValue
0.877

@<SCITEGIC>MOL_PROPERTY
VdW6
SciTegic.value.DoubleValue
-7.165

@<SCITEGIC>MOL_PROPERTY
VdW12
SciTegic.value.DoubleValue
8.043

@<SCITEGIC>MOL_PROPERTY
Bond
SciTegic.value.DoubleValue
0.134

@<SCITEGIC>MOL_PROPERTY
Angle
SciTegic.value.DoubleValue
2.513

@<SCITEGIC>MOL_PROPERTY
Pdih
SciTegic.value.DoubleValue
4.990

@<SCITEGIC>MOL_PROPERTY
Idih
SciTegic.value.DoubleValue
0.001

@<SCITEGIC>MOL_PROPERTY
Tether
SciTegic.value.DoubleValue
0.000

@<TRIPOS>MOLECULE
guest-s21_confgen4.mol2 : confsearch ligand conformer 28
          22          21           1
SMALL
USER_CHARGES
 
@<TRIPOS>ATOM
       1    C1      18.944839   19.808484   25.823805 C.2        1 MOL1         0.6145
       2    O1      18.603730   20.948253   26.070871 O.co2      1 MOL1        -0.6735
       3    O2      19.707593   19.168315   26.520114 O.co2      1 MOL1        -0.6735
       4    C2      18.401719   19.152540   24.559255 C.3        1 MOL1        -0.1985
       5    H1      17.392917   19.543181   24.379437 H          1 MOL1         0.0740
       6    H2      18.304053   18.076740   24.748366 H          1 MOL1         0.0740
       7    C3      19.299264   19.397696   23.321269 C.3        1 MOL1        -0.1882
       8    H3      19.394445   20.478979   23.150764 H          1 MOL1         0.0742
       9    H4      20.307009   19.016793   23.533003 H          1 MOL1         0.0742
      10    C4      18.727737   18.718220   22.055276 C.3        1 MOL1        -0.1880
      11    H5      17.692835   19.055231   21.905730 H          1 MOL1         0.0742
      12    H6      18.681803   17.631028   22.206584 H          1 MOL1         0.0742
      13    C5      19.534005   19.028695   20.771884 C.3        1 MOL1        -0.1880
      14    H7      18.991172   18.614519   19.911235 H          1 MOL1         0.0742
      15    H8      19.576818   20.115630   20.618033 H          1 MOL1         0.0742
      16    C6      20.966076   18.447997   20.787814 C.3        1 MOL1        -0.1856
      17    H9      20.926495   17.369556   20.994218 H          1 MOL1         0.0742
      18    H10     21.552000   18.907673   21.594505 H          1 MOL1         0.0742
      19    C7      21.687616   18.686285   19.446055 C.3        1 MOL1        -0.2871
      20    H11     21.765590   19.759410   19.227634 H          1 MOL1         0.0754
      21    H12     21.148586   18.206117   18.618865 H          1 MOL1         0.0754
      22    H13     22.703566   18.271415   19.474277 H          1 MOL1         0.0754
@<TRIPOS>BOND
    1     1     2    1
    2     1     3    2
    3     1     4    1
    4     4     5    1
    5     4     6    1
    6     4     7    1
    7     7     8    1
    8     7     9    1
    9     7    10    1
   10    10    11    1
   11    10    12    1
   12    10    13    1
   13    13    14    1
   14    13    15    1
   15    13    16    1
   16    16    17    1
   17    16    18    1
   18    16    19    1
   19    19    20    1
   20    19    21    1
   21    19    22    1
@<TRIPOS>SUBSTRUCTURE
       1 MOL1            1 RESIDUE      1      MOL     
@<SCITEGIC>MOL_PROPERTY
VConf Rank
SciTegic.value.IntegerValue
28

@<SCITEGIC>MOL_PROPERTY
Conf_Id
SciTegic.value.IntegerValue
51

@<SCITEGIC>MOL_PROPERTY
Delta U+W
SciTegic.value.DoubleValue
-0.517

@<SCITEGIC>MOL_PROPERTY
U+W
SciTegic.value.DoubleValue
-53.677

@<SCITEGIC>MOL_PROPERTY
Grad RMS
SciTegic.value.DoubleValue
0.000000

@<SCITEGIC>MOL_PROPERTY
U
SciTegic.value.DoubleValue
7.026

@<SCITEGIC>MOL_PROPERTY
W
SciTegic.value.DoubleValue
-60.703

@<SCITEGIC>MOL_PROPERTY
W(PB)
SciTegic.value.DoubleValue
-63.007

@<SCITEGIC>MOL_PROPERTY
W(SA)
SciTegic.value.DoubleValue
2.304

@<SCITEGIC>MOL_PROPERTY
Valence
SciTegic.value.DoubleValue
7.638

@<SCITEGIC>MOL_PROPERTY
Coulomb
SciTegic.value.DoubleValue
-1.488

@<SCITEGIC>MOL_PROPERTY
VdW
SciTegic.value.DoubleValue
0.877

@<SCITEGIC>MOL_PROPERTY
VdW6
SciTegic.value.DoubleValue
-7.165

@<SCITEGIC>MOL_PROPERTY
VdW12
SciTegic.value.DoubleValue
8.042

@<SCITEGIC>MOL_PROPERTY
Bond
SciTegic.value.DoubleValue
0.134

@<SCITEGIC>MOL_PROPERTY
Angle
SciTegic.value.DoubleValue
2.513

@<SCITEGIC>MOL_PROPERTY
Pdih
SciTegic.value.DoubleValue
4.990

@<SCITEGIC>MOL_PROPERTY
Idih
SciTegic.value.DoubleValue
0.001

@<SCITEGIC>MOL_PROPERTY
Tether
SciTegic.value.DoubleValue
0.000

@<TRIPOS>MOLECULE
guest-s21_confgen4.mol2 : confsearch ligand conformer 29
          22          21           1
SMALL
USER_CHARGES
 
@<TRIPOS>ATOM
       1    C1      22.116555   16.145992   22.534653 C.2        1 MOL1         0.6145
       2    O1      22.884966   16.203095   23.474432 O.co2      1 MOL1        -0.6735
       3    O2      21.294337   15.262725   22.391168 O.co2      1 MOL1        -0.6735
       4    C2      22.203517   17.233785   21.467753 C.3        1 MOL1        -0.1985
       5    H1      21.716966   16.868868   20.555059 H          1 MOL1         0.0740
       6    H2      23.264121   17.373675   21.227768 H          1 MOL1         0.0740
       7    C3      21.586567   18.589994   21.897943 C.3        1 MOL1        -0.1882
       8    H3      22.064192   18.928406   22.827999 H          1 MOL1         0.0742
       9    H4      21.814949   19.344165   21.132691 H          1 MOL1         0.0742
      10    C4      20.055961   18.510896   22.094348 C.3        1 MOL1        -0.1880
      11    H5      19.820267   17.770293   22.871113 H          1 MOL1         0.0742
      12    H6      19.584582   18.159670   21.166200 H          1 MOL1         0.0742
      13    C5      19.459076   19.878212   22.491368 C.3        1 MOL1        -0.1880
      14    H7      19.930923   20.228736   23.419593 H          1 MOL1         0.0742
      15    H8      19.690974   20.619913   21.714735 H          1 MOL1         0.0742
      16    C6      17.930657   19.799832   22.688447 C.3        1 MOL1        -0.1856
      17    H9      17.694943   19.060024   23.466024 H          1 MOL1         0.0742
      18    H10     17.454986   19.451088   21.761313 H          1 MOL1         0.0742
      19    C7      17.338262   21.166877   23.085449 C.3        1 MOL1        -0.2871
      20    H11     17.774043   21.525164   24.027322 H          1 MOL1         0.0754
      21    H12     16.251474   21.092777   23.221413 H          1 MOL1         0.0754
      22    H13     17.532313   21.919239   22.309761 H          1 MOL1         0.0754
@<TRIPOS>BOND
    1     1     2    1
    2     1     3    2
    3     1     4    1
    4     4     5    1
    5     4     6    1
    6     4     7    1
    7     7     8    1
    8     7     9    1
    9     7    10    1
   10    10    11    1
   11    10    12    1
   12    10    13    1
   13    13    14    1
   14    13    15    1
   15    13    16    1
   16    16    17    1
   17    16    18    1
   18    16    19    1
   19    19    20    1
   20    19    21    1
   21    19    22    1
@<TRIPOS>SUBSTRUCTURE
       1 MOL1            1 RESIDUE      1      MOL     
@<SCITEGIC>MOL_PROPERTY
VConf Rank
SciTegic.value.IntegerValue
29

@<SCITEGIC>MOL_PROPERTY
Conf_Id
SciTegic.value.IntegerValue
43

@<SCITEGIC>MOL_PROPERTY
Delta U+W
SciTegic.value.DoubleValue
-0.129

@<SCITEGIC>MOL_PROPERTY
U+W
SciTegic.value.DoubleValue
-53.289

@<SCITEGIC>MOL_PROPERTY
Grad RMS
SciTegic.value.DoubleValue
0.000000

@<SCITEGIC>MOL_PROPERTY
U
SciTegic.value.DoubleValue
7.937

@<SCITEGIC>MOL_PROPERTY
W
SciTegic.value.DoubleValue
-61.225

@<SCITEGIC>MOL_PROPERTY
W(PB)
SciTegic.value.DoubleValue
-63.523

@<SCITEGIC>MOL_PROPERTY
W(SA)
SciTegic.value.DoubleValue
2.297

@<SCITEGIC>MOL_PROPERTY
Valence
SciTegic.value.DoubleValue
7.358

@<SCITEGIC>MOL_PROPERTY
Coulomb
SciTegic.value.DoubleValue
-0.022

@<SCITEGIC>MOL_PROPERTY
VdW
SciTegic.value.DoubleValue
0.601

@<SCITEGIC>MOL_PROPERTY
VdW6
SciTegic.value.DoubleValue
-7.363

@<SCITEGIC>MOL_PROPERTY
VdW12
SciTegic.value.DoubleValue
7.964

@<SCITEGIC>MOL_PROPERTY
Bond
SciTegic.value.DoubleValue
0.121

@<SCITEGIC>MOL_PROPERTY
Angle
SciTegic.value.DoubleValue
2.425

@<SCITEGIC>MOL_PROPERTY
Pdih
SciTegic.value.DoubleValue
4.811

@<SCITEGIC>MOL_PROPERTY
Idih
SciTegic.value.DoubleValue
0.000

@<SCITEGIC>MOL_PROPERTY
Tether
SciTegic.value.DoubleValue
0.000

@<TRIPOS>MOLECULE
guest-s21_confgen4.mol2 : confsearch ligand conformer 30
          22          21           1
SMALL
USER_CHARGES
 
@<TRIPOS>ATOM
       1    C1      16.293191   18.644010   22.849033 C.2        1 MOL1         0.6145
       2    O1      16.023129   18.221186   23.955915 O.co2      1 MOL1        -0.6735
       3    O2      16.035253   18.049712   21.820894 O.co2      1 MOL1        -0.6735
       4    C2      16.977190   20.004418   22.746240 C.3        1 MOL1        -0.1985
       5    H1      16.447134   20.689562   23.418296 H          1 MOL1         0.0740
       6    H2      16.840446   20.389135   21.728302 H          1 MOL1         0.0740
       7    C3      18.483979   19.982133   23.112419 C.3        1 MOL1        -0.1882
       8    H3      18.857972   21.014395   23.145665 H          1 MOL1         0.0742
       9    H4      18.606805   19.568512   24.123104 H          1 MOL1         0.0742
      10    C4      19.327834   19.166757   22.107104 C.3        1 MOL1        -0.1880
      11    H5      19.191349   19.575935   21.096679 H          1 MOL1         0.0742
      12    H6      18.970530   18.127983   22.080832 H          1 MOL1         0.0742
      13    C5      20.827569   19.184169   22.473094 C.3        1 MOL1        -0.1880
      14    H7      21.187961   20.221760   22.497212 H          1 MOL1         0.0742
      15    H8      20.963228   18.774808   23.483603 H          1 MOL1         0.0742
      16    C6      21.670834   18.369451   21.470004 C.3        1 MOL1        -0.1856
      17    H9      21.538950   18.777124   20.458138 H          1 MOL1         0.0742
      18    H10     21.314301   17.330346   21.444506 H          1 MOL1         0.0742
      19    C7      23.167766   18.388600   21.839040 C.3        1 MOL1        -0.2871
      20    H11     23.558673   19.414554   21.841217 H          1 MOL1         0.0754
      21    H12     23.751991   17.804844   21.115856 H          1 MOL1         0.0754
      22    H13     23.332301   17.956843   22.834989 H          1 MOL1         0.0754
@<TRIPOS>BOND
    1     1     2    1
    2     1     3    2
    3     1     4    1
    4     4     5    1
    5     4     6    1
    6     4     7    1
    7     7     8    1
    8     7     9    1
    9     7    10    1
   10    10    11    1
   11    10    12    1
   12    10    13    1
   13    13    14    1
   14    13    15    1
   15    13    16    1
   16    16    17    1
   17    16    18    1
   18    16    19    1
   19    19    20    1
   20    19    21    1
   21    19    22    1
@<TRIPOS>SUBSTRUCTURE
       1 MOL1            1 RESIDUE      1      MOL     
@<SCITEGIC>MOL_PROPERTY
VConf Rank
SciTegic.value.IntegerValue
30

@<SCITEGIC>MOL_PROPERTY
Conf_Id
SciTegic.value.IntegerValue
44

@<SCITEGIC>MOL_PROPERTY
Delta U+W
SciTegic.value.DoubleValue
-0.155

@<SCITEGIC>MOL_PROPERTY
U+W
SciTegic.value.DoubleValue
-53.314

@<SCITEGIC>MOL_PROPERTY
Grad RMS
SciTegic.value.DoubleValue
0.000000

@<SCITEGIC>MOL_PROPERTY
U
SciTegic.value.DoubleValue
7.937

@<SCITEGIC>MOL_PROPERTY
W
SciTegic.value.DoubleValue
-61.252

@<SCITEGIC>MOL_PROPERTY
W(PB)
SciTegic.value.DoubleValue
-63.556

@<SCITEGIC>MOL_PROPERTY
W(SA)
SciTegic.value.DoubleValue
2.304

@<SCITEGIC>MOL_PROPERTY
Valence
SciTegic.value.DoubleValue
7.358

@<SCITEGIC>MOL_PROPERTY
Coulomb
SciTegic.value.DoubleValue
-0.021

@<SCITEGIC>MOL_PROPERTY
VdW
SciTegic.value.DoubleValue
0.600

@<SCITEGIC>MOL_PROPERTY
VdW6
SciTegic.value.DoubleValue
-7.363

@<SCITEGIC>MOL_PROPERTY
VdW12
SciTegic.value.DoubleValue
7.964

@<SCITEGIC>MOL_PROPERTY
Bond
SciTegic.value.DoubleValue
0.121

@<SCITEGIC>MOL_PROPERTY
Angle
SciTegic.value.DoubleValue
2.425

@<SCITEGIC>MOL_PROPERTY
Pdih
SciTegic.value.DoubleValue
4.811

@<SCITEGIC>MOL_PROPERTY
Idih
SciTegic.value.DoubleValue
0.001

@<SCITEGIC>MOL_PROPERTY
Tether
SciTegic.value.DoubleValue
0.000

@<TRIPOS>MOLECULE
guest-s21_confgen4.mol2 : confsearch ligand conformer 31
          22          21           1
SMALL
USER_CHARGES
 
@<TRIPOS>ATOM
       1    C1      16.688790   18.427096   20.627751 C.2        1 MOL1         0.6145
       2    O1      16.758796   17.447302   19.912189 O.co2      1 MOL1        -0.6735
       3    O2      16.262445   19.502424   20.255236 O.co2      1 MOL1        -0.6735
       4    C2      17.143808   18.292296   22.078302 C.3        1 MOL1        -0.1985
       5    H1      16.710429   17.365395   22.472088 H          1 MOL1         0.0740
       6    H2      16.712106   19.116320   22.659256 H          1 MOL1         0.0740
       7    C3      18.684059   18.260242   22.257820 C.3        1 MOL1        -0.1882
       8    H3      18.906807   18.007050   23.302062 H          1 MOL1         0.0742
       9    H4      19.105767   17.456105   21.639009 H          1 MOL1         0.0742
      10    C4      19.352450   19.607860   21.893964 C.3        1 MOL1        -0.1880
      11    H5      18.960254   20.403201   22.542360 H          1 MOL1         0.0742
      12    H6      19.075267   19.881873   20.866794 H          1 MOL1         0.0742
      13    C5      20.896431   19.575853   21.988415 C.3        1 MOL1        -0.1880
      14    H7      21.288179   18.780217   21.340020 H          1 MOL1         0.0742
      15    H8      21.288390   20.521744   21.590217 H          1 MOL1         0.0742
      16    C6      21.423547   19.382100   23.428218 C.3        1 MOL1        -0.1856
      17    H9      21.110324   18.404756   23.817968 H          1 MOL1         0.0742
      18    H10     20.988557   20.145398   24.088032 H          1 MOL1         0.0742
      19    C7      22.961803   19.473721   23.484002 C.3        1 MOL1        -0.2871
      20    H11     23.423900   18.702996   22.853262 H          1 MOL1         0.0754
      21    H12     23.320724   19.330900   24.511543 H          1 MOL1         0.0754
      22    H13     23.310223   20.455305   23.136939 H          1 MOL1         0.0754
@<TRIPOS>BOND
    1     1     2    1
    2     1     3    2
    3     1     4    1
    4     4     5    1
    5     4     6    1
    6     4     7    1
    7     7     8    1
    8     7     9    1
    9     7    10    1
   10    10    11    1
   11    10    12    1
   12    10    13    1
   13    13    14    1
   14    13    15    1
   15    13    16    1
   16    16    17    1
   17    16    18    1
   18    16    19    1
   19    19    20    1
   20    19    21    1
   21    19    22    1
@<TRIPOS>SUBSTRUCTURE
       1 MOL1            1 RESIDUE      1      MOL     
@<SCITEGIC>MOL_PROPERTY
VConf Rank
SciTegic.value.IntegerValue
31

@<SCITEGIC>MOL_PROPERTY
Conf_Id
SciTegic.value.IntegerValue
53

@<SCITEGIC>MOL_PROPERTY
Delta U+W
SciTegic.value.DoubleValue
0.723

@<SCITEGIC>MOL_PROPERTY
U+W
SciTegic.value.DoubleValue
-52.436

@<SCITEGIC>MOL_PROPERTY
Grad RMS
SciTegic.value.DoubleValue
0.000000

@<SCITEGIC>MOL_PROPERTY
U
SciTegic.value.DoubleValue
8.587

@<SCITEGIC>MOL_PROPERTY
W
SciTegic.value.DoubleValue
-61.022

@<SCITEGIC>MOL_PROPERTY
W(PB)
SciTegic.value.DoubleValue
-63.285

@<SCITEGIC>MOL_PROPERTY
W(SA)
SciTegic.value.DoubleValue
2.263

@<SCITEGIC>MOL_PROPERTY
Valence
SciTegic.value.DoubleValue
7.933

@<SCITEGIC>MOL_PROPERTY
Coulomb
SciTegic.value.DoubleValue
-0.124

@<SCITEGIC>MOL_PROPERTY
VdW
SciTegic.value.DoubleValue
0.778

@<SCITEGIC>MOL_PROPERTY
VdW6
SciTegic.value.DoubleValue
-7.981

@<SCITEGIC>MOL_PROPERTY
VdW12
SciTegic.value.DoubleValue
8.759

@<SCITEGIC>MOL_PROPERTY
Bond
SciTegic.value.DoubleValue
0.160

@<SCITEGIC>MOL_PROPERTY
Angle
SciTegic.value.DoubleValue
2.698

@<SCITEGIC>MOL_PROPERTY
Pdih
SciTegic.value.DoubleValue
5.074

@<SCITEGIC>MOL_PROPERTY
Idih
SciTegic.value.DoubleValue
0.001

@<SCITEGIC>MOL_PROPERTY
Tether
SciTegic.value.DoubleValue
0.000

@<TRIPOS>MOLECULE
guest-s21_confgen4.mol2 : confsearch ligand conformer 32
          22          21           1
SMALL
USER_CHARGES
 
@<TRIPOS>ATOM
       1    C1      18.003506   21.707106   21.511699 C.2        1 MOL1         0.6145
       2    O1      18.620557   22.335139   20.674208 O.co2      1 MOL1        -0.6735
       3    O2      16.892303   22.012009   21.897504 O.co2      1 MOL1        -0.6735
       4    C2      18.649501   20.455251   22.094407 C.3        1 MOL1        -0.1985
       5    H1      18.293462   20.335734   23.124569 H          1 MOL1         0.0740
       6    H2      19.730565   20.629283   22.136134 H          1 MOL1         0.0740
       7    C3      18.340712   19.180750   21.268917 C.3        1 MOL1        -0.1882
       8    H3      17.253450   19.107838   21.127620 H          1 MOL1         0.0742
       9    H4      18.774546   19.286686   20.265014 H          1 MOL1         0.0742
      10    C4      18.841472   17.864419   21.914811 C.3        1 MOL1        -0.1880
      11    H5      18.523501   17.036416   21.266544 H          1 MOL1         0.0742
      12    H6      18.337123   17.700368   22.876931 H          1 MOL1         0.0742
      13    C5      20.378555   17.775803   22.091539 C.3        1 MOL1        -0.1880
      14    H7      20.690708   16.738572   21.907949 H          1 MOL1         0.0742
      15    H8      20.881998   18.385715   21.328968 H          1 MOL1         0.0742
      16    C6      20.857250   18.178183   23.505645 C.3        1 MOL1        -0.1856
      17    H9      20.389344   17.522029   24.252452 H          1 MOL1         0.0742
      18    H10     20.540871   19.200580   23.744339 H          1 MOL1         0.0742
      19    C7      22.390773   18.080372   23.632415 C.3        1 MOL1        -0.2871
      20    H11     22.736808   17.056596   23.438829 H          1 MOL1         0.0754
      21    H12     22.714152   18.362091   24.642907 H          1 MOL1         0.0754
      22    H13     22.886831   18.750929   22.918526 H          1 MOL1         0.0754
@<TRIPOS>BOND
    1     1     2    1
    2     1     3    2
    3     1     4    1
    4     4     5    1
    5     4     6    1
    6     4     7    1
    7     7     8    1
    8     7     9    1
    9     7    10    1
   10    10    11    1
   11    10    12    1
   12    10    13    1
   13    13    14    1
   14    13    15    1
   15    13    16    1
   16    16    17    1
   17    16    18    1
   18    16    19    1
   19    19    20    1
   20    19    21    1
   21    19    22    1
@<TRIPOS>SUBSTRUCTURE
       1 MOL1            1 RESIDUE      1      MOL     
@<SCITEGIC>MOL_PROPERTY
VConf Rank
SciTegic.value.IntegerValue
32

@<SCITEGIC>MOL_PROPERTY
Conf_Id
SciTegic.value.IntegerValue
5

@<SCITEGIC>MOL_PROPERTY
Delta U+W
SciTegic.value.DoubleValue
2.167

@<SCITEGIC>MOL_PROPERTY
U+W
SciTegic.value.DoubleValue
-50.993

@<SCITEGIC>MOL_PROPERTY
Grad RMS
SciTegic.value.DoubleValue
0.000000

@<SCITEGIC>MOL_PROPERTY
U
SciTegic.value.DoubleValue
10.045

@<SCITEGIC>MOL_PROPERTY
W
SciTegic.value.DoubleValue
-61.037

@<SCITEGIC>MOL_PROPERTY
W(PB)
SciTegic.value.DoubleValue
-63.303

@<SCITEGIC>MOL_PROPERTY
W(SA)
SciTegic.value.DoubleValue
2.266

@<SCITEGIC>MOL_PROPERTY
Valence
SciTegic.value.DoubleValue
10.100

@<SCITEGIC>MOL_PROPERTY
Coulomb
SciTegic.value.DoubleValue
-0.883

@<SCITEGIC>MOL_PROPERTY
VdW
SciTegic.value.DoubleValue
0.828

@<SCITEGIC>MOL_PROPERTY
VdW6
SciTegic.value.DoubleValue
-8.177

@<SCITEGIC>MOL_PROPERTY
VdW12
SciTegic.value.DoubleValue
9.005

@<SCITEGIC>MOL_PROPERTY
Bond
SciTegic.value.DoubleValue
0.182

@<SCITEGIC>MOL_PROPERTY
Angle
SciTegic.value.DoubleValue
2.988

@<SCITEGIC>MOL_PROPERTY
Pdih
SciTegic.value.DoubleValue
6.930

@<SCITEGIC>MOL_PROPERTY
Idih
SciTegic.value.DoubleValue
0.001

@<SCITEGIC>MOL_PROPERTY
Tether
SciTegic.value.DoubleValue
0.000

@<TRIPOS>MOLECULE
guest-s21_confgen4.mol2 : confsearch ligand conformer 33
          22          21           1
SMALL
USER_CHARGES
 
@<TRIPOS>ATOM
       1    C1      22.164816   19.968030   24.540315 C.2        1 MOL1         0.6145
       2    O1      22.386964   19.082851   25.342611 O.co2      1 MOL1        -0.6735
       3    O2      22.658565   21.076298   24.607679 O.co2      1 MOL1        -0.6735
       4    C2      21.195759   19.679851   23.399314 C.3        1 MOL1        -0.1985
       5    H1      21.308805   18.624368   23.127459 H          1 MOL1         0.0740
       6    H2      21.500732   20.279225   22.533275 H          1 MOL1         0.0740
       7    C3      19.722827   19.985368   23.771165 C.3        1 MOL1        -0.1882
       8    H3      19.410807   19.319501   24.587571 H          1 MOL1         0.0742
       9    H4      19.665272   21.007798   24.169596 H          1 MOL1         0.0742
      10    C4      18.727042   19.861469   22.590601 C.3        1 MOL1        -0.1880
      11    H5      18.973601   20.594503   21.810329 H          1 MOL1         0.0742
      12    H6      17.734148   20.146633   22.964484 H          1 MOL1         0.0742
      13    C5      18.622862   18.440870   21.980063 C.3        1 MOL1        -0.1880
      14    H7      18.863734   17.684836   22.739902 H          1 MOL1         0.0742
      15    H8      17.577986   18.261838   21.691659 H          1 MOL1         0.0742
      16    C6      19.507101   18.245907   20.726720 C.3        1 MOL1        -0.1856
      17    H9      20.559641   18.444117   20.961744 H          1 MOL1         0.0742
      18    H10     19.215461   18.971439   19.954876 H          1 MOL1         0.0742
      19    C7      19.375540   16.818584   20.158588 C.3        1 MOL1        -0.2871
      20    H11     19.691536   16.071400   20.898332 H          1 MOL1         0.0754
      21    H12     20.003035   16.698167   19.265962 H          1 MOL1         0.0754
      22    H13     18.337236   16.602524   19.874727 H          1 MOL1         0.0754
@<TRIPOS>BOND
    1     1     2    1
    2     1     3    2
    3     1     4    1
    4     4     5    1
    5     4     6    1
    6     4     7    1
    7     7     8    1
    8     7     9    1
    9     7    10    1
   10    10    11    1
   11    10    12    1
   12    10    13    1
   13    13    14    1
   14    13    15    1
   15    13    16    1
   16    16    17    1
   17    16    18    1
   18    16    19    1
   19    19    20    1
   20    19    21    1
   21    19    22    1
@<TRIPOS>SUBSTRUCTURE
       1 MOL1            1 RESIDUE      1      MOL     
@<SCITEGIC>MOL_PROPERTY
VConf Rank
SciTegic.value.IntegerValue
33

@<SCITEGIC>MOL_PROPERTY
Conf_Id
SciTegic.value.IntegerValue
6

@<SCITEGIC>MOL_PROPERTY
Delta U+W
SciTegic.value.DoubleValue
2.118

@<SCITEGIC>MOL_PROPERTY
U+W
SciTegic.value.DoubleValue
-51.042

@<SCITEGIC>MOL_PROPERTY
Grad RMS
SciTegic.value.DoubleValue
0.000000

@<SCITEGIC>MOL_PROPERTY
U
SciTegic.value.DoubleValue
10.045

@<SCITEGIC>MOL_PROPERTY
W
SciTegic.value.DoubleValue
-61.086

@<SCITEGIC>MOL_PROPERTY
W(PB)
SciTegic.value.DoubleValue
-63.356

@<SCITEGIC>MOL_PROPERTY
W(SA)
SciTegic.value.DoubleValue
2.270

@<SCITEGIC>MOL_PROPERTY
Valence
SciTegic.value.DoubleValue
10.100

@<SCITEGIC>MOL_PROPERTY
Coulomb
SciTegic.value.DoubleValue
-0.883

@<SCITEGIC>MOL_PROPERTY
VdW
SciTegic.value.DoubleValue
0.828

@<SCITEGIC>MOL_PROPERTY
VdW6
SciTegic.value.DoubleValue
-8.177

@<SCITEGIC>MOL_PROPERTY
VdW12
SciTegic.value.DoubleValue
9.004

@<SCITEGIC>MOL_PROPERTY
Bond
SciTegic.value.DoubleValue
0.182

@<SCITEGIC>MOL_PROPERTY
Angle
SciTegic.value.DoubleValue
2.988

@<SCITEGIC>MOL_PROPERTY
Pdih
SciTegic.value.DoubleValue
6.930

@<SCITEGIC>MOL_PROPERTY
Idih
SciTegic.value.DoubleValue
0.001

@<SCITEGIC>MOL_PROPERTY
Tether
SciTegic.value.DoubleValue
0.000

@<TRIPOS>MOLECULE
guest-s21_confgen4.mol2 : confsearch ligand conformer 34
          22          21           1
SMALL
USER_CHARGES
 
@<TRIPOS>ATOM
       1    C1      19.959444   16.767907   24.140927 C.2        1 MOL1         0.6145
       2    O1      20.090662   17.157240   25.284909 O.co2      1 MOL1        -0.6735
       3    O2      20.863469   16.280847   23.490875 O.co2      1 MOL1        -0.6735
       4    C2      18.569819   16.827834   23.509415 C.3        1 MOL1        -0.1985
       5    H1      17.930757   16.168365   24.107939 H          1 MOL1         0.0740
       6    H2      18.615902   16.392067   22.504016 H          1 MOL1         0.0740
       7    C3      17.926104   18.241934   23.454362 C.3        1 MOL1        -0.1882
       8    H3      16.841091   18.116051   23.338943 H          1 MOL1         0.0742
       9    H4      18.069922   18.756685   24.414529 H          1 MOL1         0.0742
      10    C4      18.423070   19.137047   22.292161 C.3        1 MOL1        -0.1880
      11    H5      17.794343   20.037450   22.261339 H          1 MOL1         0.0742
      12    H6      18.268682   18.620000   21.335261 H          1 MOL1         0.0742
      13    C5      19.901872   19.568463   22.416789 C.3        1 MOL1        -0.1880
      14    H7      20.079658   19.993034   23.414375 H          1 MOL1         0.0742
      15    H8      20.555545   18.692545   22.319101 H          1 MOL1         0.0742
      16    C6      20.287136   20.603027   21.338273 C.3        1 MOL1        -0.1856
      17    H9      19.646057   21.490765   21.429342 H          1 MOL1         0.0742
      18    H10     20.108176   20.180432   20.339874 H          1 MOL1         0.0742
      19    C7      21.765226   21.025122   21.458702 C.3        1 MOL1        -0.2871
      20    H11     21.964949   21.480018   22.437758 H          1 MOL1         0.0754
      21    H12     22.022500   21.759548   20.684459 H          1 MOL1         0.0754
      22    H13     22.431099   20.160148   21.340650 H          1 MOL1         0.0754
@<TRIPOS>BOND
    1     1     2    1
    2     1     3    2
    3     1     4    1
    4     4     5    1
    5     4     6    1
    6     4     7    1
    7     7     8    1
    8     7     9    1
    9     7    10    1
   10    10    11    1
   11    10    12    1
   12    10    13    1
   13    13    14    1
   14    13    15    1
   15    13    16    1
   16    16    17    1
   17    16    18    1
   18    16    19    1
   19    19    20    1
   20    19    21    1
   21    19    22    1
@<TRIPOS>SUBSTRUCTURE
       1 MOL1            1 RESIDUE      1      MOL     
@<SCITEGIC>MOL_PROPERTY
VConf Rank
SciTegic.value.IntegerValue
34

@<SCITEGIC>MOL_PROPERTY
Conf_Id
SciTegic.value.IntegerValue
8

@<SCITEGIC>MOL_PROPERTY
Delta U+W
SciTegic.value.DoubleValue
1.886

@<SCITEGIC>MOL_PROPERTY
U+W
SciTegic.value.DoubleValue
-51.274

@<SCITEGIC>MOL_PROPERTY
Grad RMS
SciTegic.value.DoubleValue
0.000000

@<SCITEGIC>MOL_PROPERTY
U
SciTegic.value.DoubleValue
11.237

@<SCITEGIC>MOL_PROPERTY
W
SciTegic.value.DoubleValue
-62.510

@<SCITEGIC>MOL_PROPERTY
W(PB)
SciTegic.value.DoubleValue
-64.777

@<SCITEGIC>MOL_PROPERTY
W(SA)
SciTegic.value.DoubleValue
2.267

@<SCITEGIC>MOL_PROPERTY
Valence
SciTegic.value.DoubleValue
9.029

@<SCITEGIC>MOL_PROPERTY
Coulomb
SciTegic.value.DoubleValue
1.667

@<SCITEGIC>MOL_PROPERTY
VdW
SciTegic.value.DoubleValue
0.540

@<SCITEGIC>MOL_PROPERTY
VdW6
SciTegic.value.DoubleValue
-8.825

@<SCITEGIC>MOL_PROPERTY
VdW12
SciTegic.value.DoubleValue
9.365

@<SCITEGIC>MOL_PROPERTY
Bond
SciTegic.value.DoubleValue
0.186

@<SCITEGIC>MOL_PROPERTY
Angle
SciTegic.value.DoubleValue
3.195

@<SCITEGIC>MOL_PROPERTY
Pdih
SciTegic.value.DoubleValue
5.642

@<SCITEGIC>MOL_PROPERTY
Idih
SciTegic.value.DoubleValue
0.007

@<SCITEGIC>MOL_PROPERTY
Tether
SciTegic.value.DoubleValue
0.000

@<TRIPOS>MOLECULE
guest-s21_confgen4.mol2 : confsearch ligand conformer 35
          22          21           1
SMALL
USER_CHARGES
 
@<TRIPOS>ATOM
       1    C1      18.940274   17.556707   19.791752 C.2        1 MOL1         0.6145
       2    O1      20.119554   17.498792   19.504164 O.co2      1 MOL1        -0.6735
       3    O2      18.077924   17.929102   19.020401 O.co2      1 MOL1        -0.6735
       4    C2      18.512699   17.109623   21.186908 C.3        1 MOL1        -0.1985
       5    H1      19.337354   16.552652   21.645639 H          1 MOL1         0.0740
       6    H2      17.689988   16.396010   21.061902 H          1 MOL1         0.0740
       7    C3      18.049703   18.268656   22.111799 C.3        1 MOL1        -0.1882
       8    H3      17.173765   18.751521   21.656934 H          1 MOL1         0.0742
       9    H4      17.708067   17.851694   23.068752 H          1 MOL1         0.0742
      10    C4      19.127131   19.347990   22.381832 C.3        1 MOL1        -0.1880
      11    H5      18.660388   20.154285   22.961516 H          1 MOL1         0.0742
      12    H6      19.449624   19.796044   21.432006 H          1 MOL1         0.0742
      13    C5      20.360749   18.809492   23.147110 C.3        1 MOL1        -0.1880
      14    H7      20.040417   18.343013   24.088532 H          1 MOL1         0.0742
      15    H8      20.839719   18.020604   22.552823 H          1 MOL1         0.0742
      16    C6      21.422614   19.894703   23.441658 C.3        1 MOL1        -0.1856
      17    H9      21.733399   20.373621   22.502814 H          1 MOL1         0.0742
      18    H10     22.317857   19.407552   23.852024 H          1 MOL1         0.0742
      19    C7      20.942394   20.969455   24.441213 C.3        1 MOL1        -0.2871
      20    H11     20.122846   21.568070   24.024861 H          1 MOL1         0.0754
      21    H12     21.762024   21.656524   24.688277 H          1 MOL1         0.0754
      22    H13     20.594011   20.509719   25.375221 H          1 MOL1         0.0754
@<TRIPOS>BOND
    1     1     2    1
    2     1     3    2
    3     1     4    1
    4     4     5    1
    5     4     6    1
    6     4     7    1
    7     7     8    1
    8     7     9    1
    9     7    10    1
   10    10    11    1
   11    10    12    1
   12    10    13    1
   13    13    14    1
   14    13    15    1
   15    13    16    1
   16    16    17    1
   17    16    18    1
   18    16    19    1
   19    19    20    1
   20    19    21    1
   21    19    22    1
@<TRIPOS>SUBSTRUCTURE
       1 MOL1            1 RESIDUE      1      MOL     
@<SCITEGIC>MOL_PROPERTY
VConf Rank
SciTegic.value.IntegerValue
35

@<SCITEGIC>MOL_PROPERTY
Conf_Id
SciTegic.value.IntegerValue
93

@<SCITEGIC>MOL_PROPERTY
Delta U+W
SciTegic.value.DoubleValue
1.836

@<SCITEGIC>MOL_PROPERTY
U+W
SciTegic.value.DoubleValue
-51.323

@<SCITEGIC>MOL_PROPERTY
Grad RMS
SciTegic.value.DoubleValue
0.000000

@<SCITEGIC>MOL_PROPERTY
U
SciTegic.value.DoubleValue
10.427

@<SCITEGIC>MOL_PROPERTY
W
SciTegic.value.DoubleValue
-61.751

@<SCITEGIC>MOL_PROPERTY
W(PB)
SciTegic.value.DoubleValue
-63.980

@<SCITEGIC>MOL_PROPERTY
W(SA)
SciTegic.value.DoubleValue
2.230

@<SCITEGIC>MOL_PROPERTY
Valence
SciTegic.value.DoubleValue
8.446

@<SCITEGIC>MOL_PROPERTY
Coulomb
SciTegic.value.DoubleValue
1.306

@<SCITEGIC>MOL_PROPERTY
VdW
SciTegic.value.DoubleValue
0.676

@<SCITEGIC>MOL_PROPERTY
VdW6
SciTegic.value.DoubleValue
-8.928

@<SCITEGIC>MOL_PROPERTY
VdW12
SciTegic.value.DoubleValue
9.604

@<SCITEGIC>MOL_PROPERTY
Bond
SciTegic.value.DoubleValue
0.209

@<SCITEGIC>MOL_PROPERTY
Angle
SciTegic.value.DoubleValue
3.066

@<SCITEGIC>MOL_PROPERTY
Pdih
SciTegic.value.DoubleValue
5.170

@<SCITEGIC>MOL_PROPERTY
Idih
SciTegic.value.DoubleValue
0.001

@<SCITEGIC>MOL_PROPERTY
Tether
SciTegic.value.DoubleValue
0.000

@<TRIPOS>MOLECULE
guest-s21_confgen4.mol2 : confsearch ligand conformer 36
          22          21           1
SMALL
USER_CHARGES
 
@<TRIPOS>ATOM
       1    C1      20.334692   19.751391   25.407299 C.2        1 MOL1         0.6145
       2    O1      20.956324   19.032330   26.164815 O.co2      1 MOL1        -0.6735
       3    O2      19.171474   20.059744   25.576443 O.co2      1 MOL1        -0.6735
       4    C2      21.065506   20.320979   24.194599 C.3        1 MOL1        -0.1985
       5    H1      22.002264   20.760722   24.556308 H          1 MOL1         0.0740
       6    H2      20.474632   21.147643   23.784473 H          1 MOL1         0.0740
       7    C3      21.383225   19.272272   23.093500 C.3        1 MOL1        -0.1882
       8    H3      21.956442   19.755022   22.290564 H          1 MOL1         0.0742
       9    H4      22.041358   18.503345   23.521214 H          1 MOL1         0.0742
      10    C4      20.139182   18.578534   22.485374 C.3        1 MOL1        -0.1880
      11    H5      19.578309   18.062507   23.276615 H          1 MOL1         0.0742
      12    H6      20.489213   17.799819   21.796116 H          1 MOL1         0.0742
      13    C5      19.198497   19.550271   21.731530 C.3        1 MOL1        -0.1880
      14    H7      18.830373   20.312915   22.429952 H          1 MOL1         0.0742
      15    H8      19.760288   20.082834   20.952260 H          1 MOL1         0.0742
      16    C6      17.971848   18.851429   21.099908 C.3        1 MOL1        -0.1856
      17    H9      17.289126   19.621245   20.714617 H          1 MOL1         0.0742
      18    H10     17.416802   18.304966   21.874945 H          1 MOL1         0.0742
      19    C7      18.337304   17.892293   19.946084 C.3        1 MOL1        -0.2871
      20    H11     18.920514   17.035379   20.305131 H          1 MOL1         0.0754
      21    H12     18.923212   18.409946   19.175470 H          1 MOL1         0.0754
      22    H13     17.428595   17.499220   19.472124 H          1 MOL1         0.0754
@<TRIPOS>BOND
    1     1     2    1
    2     1     3    2
    3     1     4    1
    4     4     5    1
    5     4     6    1
    6     4     7    1
    7     7     8    1
    8     7     9    1
    9     7    10    1
   10    10    11    1
   11    10    12    1
   12    10    13    1
   13    13    14    1
   14    13    15    1
   15    13    16    1
   16    16    17    1
   17    16    18    1
   18    16    19    1
   19    19    20    1
   20    19    21    1
   21    19    22    1
@<TRIPOS>SUBSTRUCTURE
       1 MOL1            1 RESIDUE      1      MOL     
@<SCITEGIC>MOL_PROPERTY
VConf Rank
SciTegic.value.IntegerValue
36

@<SCITEGIC>MOL_PROPERTY
Conf_Id
SciTegic.value.IntegerValue
70

@<SCITEGIC>MOL_PROPERTY
Delta U+W
SciTegic.value.DoubleValue
1.803

@<SCITEGIC>MOL_PROPERTY
U+W
SciTegic.value.DoubleValue
-51.356

@<SCITEGIC>MOL_PROPERTY
Grad RMS
SciTegic.value.DoubleValue
0.000000

@<SCITEGIC>MOL_PROPERTY
U
SciTegic.value.DoubleValue
10.428

@<SCITEGIC>MOL_PROPERTY
W
SciTegic.value.DoubleValue
-61.784

@<SCITEGIC>MOL_PROPERTY
W(PB)
SciTegic.value.DoubleValue
-64.014

@<SCITEGIC>MOL_PROPERTY
W(SA)
SciTegic.value.DoubleValue
2.230

@<SCITEGIC>MOL_PROPERTY
Valence
SciTegic.value.DoubleValue
8.445

@<SCITEGIC>MOL_PROPERTY
Coulomb
SciTegic.value.DoubleValue
1.306

@<SCITEGIC>MOL_PROPERTY
VdW
SciTegic.value.DoubleValue
0.676

@<SCITEGIC>MOL_PROPERTY
VdW6
SciTegic.value.DoubleValue
-8.929

@<SCITEGIC>MOL_PROPERTY
VdW12
SciTegic.value.DoubleValue
9.605

@<SCITEGIC>MOL_PROPERTY
Bond
SciTegic.value.DoubleValue
0.209

@<SCITEGIC>MOL_PROPERTY
Angle
SciTegic.value.DoubleValue
3.066

@<SCITEGIC>MOL_PROPERTY
Pdih
SciTegic.value.DoubleValue
5.170

@<SCITEGIC>MOL_PROPERTY
Idih
SciTegic.value.DoubleValue
0.001

@<SCITEGIC>MOL_PROPERTY
Tether
SciTegic.value.DoubleValue
0.000

@<TRIPOS>MOLECULE
guest-s21_confgen4.mol2 : confsearch ligand conformer 37
          22          21           1
SMALL
USER_CHARGES
 
@<TRIPOS>ATOM
       1    C1      20.192867   16.963853   24.953855 C.2        1 MOL1         0.6145
       2    O1      19.369164   17.318301   25.774093 O.co2      1 MOL1        -0.6735
       3    O2      21.386402   16.914962   25.177378 O.co2      1 MOL1        -0.6735
       4    C2      19.697022   16.537161   23.575026 C.3        1 MOL1        -0.1985
       5    H1      18.828737   15.884900   23.725610 H          1 MOL1         0.0740
       6    H2      20.473085   15.927019   23.097225 H          1 MOL1         0.0740
       7    C3      19.302222   17.720662   22.653918 C.3        1 MOL1        -0.1882
       8    H3      18.837736   17.323096   21.741526 H          1 MOL1         0.0742
       9    H4      18.539691   18.326607   23.160879 H          1 MOL1         0.0742
      10    C4      20.515319   18.600430   22.267956 C.3        1 MOL1        -0.1880
      11    H5      21.299965   17.959691   21.842956 H          1 MOL1         0.0742
      12    H6      20.945344   19.059251   23.168993 H          1 MOL1         0.0742
      13    C5      20.173045   19.705191   21.240397 C.3        1 MOL1        -0.1880
      14    H7      21.106718   20.195903   20.933237 H          1 MOL1         0.0742
      15    H8      19.750078   19.248260   20.335312 H          1 MOL1         0.0742
      16    C6      19.200903   20.774719   21.787405 C.3        1 MOL1        -0.1856
      17    H9      19.599173   21.194183   22.721588 H          1 MOL1         0.0742
      18    H10     18.232301   20.317613   22.028702 H          1 MOL1         0.0742
      19    C7      18.979286   21.911185   20.769042 C.3        1 MOL1        -0.2871
      20    H11     19.924367   22.417590   20.532977 H          1 MOL1         0.0754
      21    H12     18.284778   22.660415   21.170753 H          1 MOL1         0.0754
      22    H13     18.555246   21.522802   19.833776 H          1 MOL1         0.0754
@<TRIPOS>BOND
    1     1     2    1
    2     1     3    2
    3     1     4    1
    4     4     5    1
    5     4     6    1
    6     4     7    1
    7     7     8    1
    8     7     9    1
    9     7    10    1
   10    10    11    1
   11    10    12    1
   12    10    13    1
   13    13    14    1
   14    13    15    1
   15    13    16    1
   16    16    17    1
   17    16    18    1
   18    16    19    1
   19    19    20    1
   20    19    21    1
   21    19    22    1
@<TRIPOS>SUBSTRUCTURE
       1 MOL1            1 RESIDUE      1      MOL     
@<SCITEGIC>MOL_PROPERTY
VConf Rank
SciTegic.value.IntegerValue
37

@<SCITEGIC>MOL_PROPERTY
Conf_Id
SciTegic.value.IntegerValue
85

@<SCITEGIC>MOL_PROPERTY
Delta U+W
SciTegic.value.DoubleValue
0.707

@<SCITEGIC>MOL_PROPERTY
U+W
SciTegic.value.DoubleValue
-52.452

@<SCITEGIC>MOL_PROPERTY
Grad RMS
SciTegic.value.DoubleValue
0.000000

@<SCITEGIC>MOL_PROPERTY
U
SciTegic.value.DoubleValue
8.925

@<SCITEGIC>MOL_PROPERTY
W
SciTegic.value.DoubleValue
-61.378

@<SCITEGIC>MOL_PROPERTY
W(PB)
SciTegic.value.DoubleValue
-63.661

@<SCITEGIC>MOL_PROPERTY
W(SA)
SciTegic.value.DoubleValue
2.283

@<SCITEGIC>MOL_PROPERTY
Valence
SciTegic.value.DoubleValue
7.881

@<SCITEGIC>MOL_PROPERTY
Coulomb
SciTegic.value.DoubleValue
0.349

@<SCITEGIC>MOL_PROPERTY
VdW
SciTegic.value.DoubleValue
0.695

@<SCITEGIC>MOL_PROPERTY
VdW6
SciTegic.value.DoubleValue
-8.049

@<SCITEGIC>MOL_PROPERTY
VdW12
SciTegic.value.DoubleValue
8.743

@<SCITEGIC>MOL_PROPERTY
Bond
SciTegic.value.DoubleValue
0.156

@<SCITEGIC>MOL_PROPERTY
Angle
SciTegic.value.DoubleValue
2.660

@<SCITEGIC>MOL_PROPERTY
Pdih
SciTegic.value.DoubleValue
5.064

@<SCITEGIC>MOL_PROPERTY
Idih
SciTegic.value.DoubleValue
0.001

@<SCITEGIC>MOL_PROPERTY
Tether
SciTegic.value.DoubleValue
0.000

@<TRIPOS>MOLECULE
guest-s21_confgen4.mol2 : confsearch ligand conformer 38
          22          21           1
SMALL
USER_CHARGES
 
@<TRIPOS>ATOM
       1    C1      18.284235   19.331019   25.285569 C.2        1 MOL1         0.6145
       2    O1      18.116217   18.290351   25.890318 O.co2      1 MOL1        -0.6735
       3    O2      18.714783   20.344808   25.799216 O.co2      1 MOL1        -0.6735
       4    C2      17.913156   19.375996   23.805815 C.3        1 MOL1        -0.1985
       5    H1      17.336363   20.293763   23.641485 H          1 MOL1         0.0740
       6    H2      17.242760   18.536187   23.586394 H          1 MOL1         0.0740
       7    C3      19.131852   19.352941   22.846683 C.3        1 MOL1        -0.1882
       8    H3      18.773309   19.546452   21.827906 H          1 MOL1         0.0742
       9    H4      19.817725   20.170585   23.108055 H          1 MOL1         0.0742
      10    C4      19.886317   18.003481   22.875366 C.3        1 MOL1        -0.1880
      11    H5      19.216846   17.203838   22.530287 H          1 MOL1         0.0742
      12    H6      20.147044   17.757912   23.913903 H          1 MOL1         0.0742
      13    C5      21.187908   17.984274   22.035118 C.3        1 MOL1        -0.1880
      14    H7      21.902683   18.718394   22.431466 H          1 MOL1         0.0742
      15    H8      21.658782   17.002237   22.179158 H          1 MOL1         0.0742
      16    C6      20.982651   18.201459   20.515051 C.3        1 MOL1        -0.1856
      17    H9      19.983484   17.858963   20.212442 H          1 MOL1         0.0742
      18    H10     21.699164   17.571117   19.970464 H          1 MOL1         0.0742
      19    C7      21.204046   19.665449   20.073748 C.3        1 MOL1        -0.2871
      20    H11     20.508288   20.351412   20.570011 H          1 MOL1         0.0754
      21    H12     21.058445   19.765990   18.990461 H          1 MOL1         0.0754
      22    H13     22.225663   19.992718   20.306731 H          1 MOL1         0.0754
@<TRIPOS>BOND
    1     1     2    1
    2     1     3    2
    3     1     4    1
    4     4     5    1
    5     4     6    1
    6     4     7    1
    7     7     8    1
    8     7     9    1
    9     7    10    1
   10    10    11    1
   11    10    12    1
   12    10    13    1
   13    13    14    1
   14    13    15    1
   15    13    16    1
   16    16    17    1
   17    16    18    1
   18    16    19    1
   19    19    20    1
   20    19    21    1
   21    19    22    1
@<TRIPOS>SUBSTRUCTURE
       1 MOL1            1 RESIDUE      1      MOL     
@<SCITEGIC>MOL_PROPERTY
VConf Rank
SciTegic.value.IntegerValue
38

@<SCITEGIC>MOL_PROPERTY
Conf_Id
SciTegic.value.IntegerValue
82

@<SCITEGIC>MOL_PROPERTY
Delta U+W
SciTegic.value.DoubleValue
3.438

@<SCITEGIC>MOL_PROPERTY
U+W
SciTegic.value.DoubleValue
-49.721

@<SCITEGIC>MOL_PROPERTY
Grad RMS
SciTegic.value.DoubleValue
0.000000

@<SCITEGIC>MOL_PROPERTY
U
SciTegic.value.DoubleValue
11.773

@<SCITEGIC>MOL_PROPERTY
W
SciTegic.value.DoubleValue
-61.495

@<SCITEGIC>MOL_PROPERTY
W(PB)
SciTegic.value.DoubleValue
-63.749

@<SCITEGIC>MOL_PROPERTY
W(SA)
SciTegic.value.DoubleValue
2.254

@<SCITEGIC>MOL_PROPERTY
Valence
SciTegic.value.DoubleValue
10.419

@<SCITEGIC>MOL_PROPERTY
Coulomb
SciTegic.value.DoubleValue
0.565

@<SCITEGIC>MOL_PROPERTY
VdW
SciTegic.value.DoubleValue
0.789

@<SCITEGIC>MOL_PROPERTY
VdW6
SciTegic.value.DoubleValue
-8.847

@<SCITEGIC>MOL_PROPERTY
VdW12
SciTegic.value.DoubleValue
9.636

@<SCITEGIC>MOL_PROPERTY
Bond
SciTegic.value.DoubleValue
0.200

@<SCITEGIC>MOL_PROPERTY
Angle
SciTegic.value.DoubleValue
3.187

@<SCITEGIC>MOL_PROPERTY
Pdih
SciTegic.value.DoubleValue
7.032

@<SCITEGIC>MOL_PROPERTY
Idih
SciTegic.value.DoubleValue
0.001

@<SCITEGIC>MOL_PROPERTY
Tether
SciTegic.value.DoubleValue
0.000

@<TRIPOS>MOLECULE
guest-s21_confgen4.mol2 : confsearch ligand conformer 39
          22          21           1
SMALL
USER_CHARGES
 
@<TRIPOS>ATOM
       1    C1      22.864050   17.327556   22.249366 C.2        1 MOL1         0.6145
       2    O1      22.695519   16.176970   22.602527 O.co2      1 MOL1        -0.6735
       3    O2      23.516642   17.642328   21.273670 O.co2      1 MOL1        -0.6735
       4    C2      22.240655   18.437213   23.091648 C.3        1 MOL1        -0.1985
       5    H1      22.750235   19.380776   22.861705 H          1 MOL1         0.0740
       6    H2      22.454499   18.208972   24.142443 H          1 MOL1         0.0740
       7    C3      20.709792   18.594524   22.898256 C.3        1 MOL1        -0.1882
       8    H3      20.217081   17.630525   23.085925 H          1 MOL1         0.0742
       9    H4      20.336980   19.299054   23.652282 H          1 MOL1         0.0742
      10    C4      20.337887   19.110215   21.488706 C.3        1 MOL1        -0.1880
      11    H5      20.806433   18.464850   20.733187 H          1 MOL1         0.0742
      12    H6      20.764012   20.112103   21.342626 H          1 MOL1         0.0742
      13    C5      18.814755   19.152100   21.207919 C.3        1 MOL1        -0.1880
      14    H7      18.680245   19.477136   20.167186 H          1 MOL1         0.0742
      15    H8      18.394346   18.138465   21.260150 H          1 MOL1         0.0742
      16    C6      18.012625   20.113601   22.120059 C.3        1 MOL1        -0.1856
      17    H9      17.214473   20.578143   21.524701 H          1 MOL1         0.0742
      18    H10     18.654269   20.936200   22.464786 H          1 MOL1         0.0742
      19    C7      17.356716   19.403918   23.325530 C.3        1 MOL1        -0.2871
      20    H11     16.657227   18.628117   22.987991 H          1 MOL1         0.0754
      21    H12     16.792486   20.122721   23.933630 H          1 MOL1         0.0754
      22    H13     18.101041   18.928394   23.974192 H          1 MOL1         0.0754
@<TRIPOS>BOND
    1     1     2    1
    2     1     3    2
    3     1     4    1
    4     4     5    1
    5     4     6    1
    6     4     7    1
    7     7     8    1
    8     7     9    1
    9     7    10    1
   10    10    11    1
   11    10    12    1
   12    10    13    1
   13    13    14    1
   14    13    15    1
   15    13    16    1
   16    16    17    1
   17    16    18    1
   18    16    19    1
   19    19    20    1
   20    19    21    1
   21    19    22    1
@<TRIPOS>SUBSTRUCTURE
       1 MOL1            1 RESIDUE      1      MOL     
@<SCITEGIC>MOL_PROPERTY
VConf Rank
SciTegic.value.IntegerValue
39

@<SCITEGIC>MOL_PROPERTY
Conf_Id
SciTegic.value.IntegerValue
94

@<SCITEGIC>MOL_PROPERTY
Delta U+W
SciTegic.value.DoubleValue
3.471

@<SCITEGIC>MOL_PROPERTY
U+W
SciTegic.value.DoubleValue
-49.688

@<SCITEGIC>MOL_PROPERTY
Grad RMS
SciTegic.value.DoubleValue
0.000000

@<SCITEGIC>MOL_PROPERTY
U
SciTegic.value.DoubleValue
11.773

@<SCITEGIC>MOL_PROPERTY
W
SciTegic.value.DoubleValue
-61.461

@<SCITEGIC>MOL_PROPERTY
W(PB)
SciTegic.value.DoubleValue
-63.710

@<SCITEGIC>MOL_PROPERTY
W(SA)
SciTegic.value.DoubleValue
2.248

@<SCITEGIC>MOL_PROPERTY
Valence
SciTegic.value.DoubleValue
10.419

@<SCITEGIC>MOL_PROPERTY
Coulomb
SciTegic.value.DoubleValue
0.566

@<SCITEGIC>MOL_PROPERTY
VdW
SciTegic.value.DoubleValue
0.789

@<SCITEGIC>MOL_PROPERTY
VdW6
SciTegic.value.DoubleValue
-8.847

@<SCITEGIC>MOL_PROPERTY
VdW12
SciTegic.value.DoubleValue
9.636

@<SCITEGIC>MOL_PROPERTY
Bond
SciTegic.value.DoubleValue
0.200

@<SCITEGIC>MOL_PROPERTY
Angle
SciTegic.value.DoubleValue
3.187

@<SCITEGIC>MOL_PROPERTY
Pdih
SciTegic.value.DoubleValue
7.032

@<SCITEGIC>MOL_PROPERTY
Idih
SciTegic.value.DoubleValue
0.001

@<SCITEGIC>MOL_PROPERTY
Tether
SciTegic.value.DoubleValue
0.000

@<TRIPOS>MOLECULE
guest-s21_confgen4.mol2 : confsearch ligand conformer 40
          22          21           1
SMALL
USER_CHARGES
 
@<TRIPOS>ATOM
       1    C1      19.210998   20.673759   25.220671 C.2        1 MOL1         0.6145
       2    O1      18.708817   20.310595   26.265958 O.co2      1 MOL1        -0.6735
       3    O2      19.160938   21.817000   24.811929 O.co2      1 MOL1        -0.6735
       4    C2      19.926395   19.633529   24.366235 C.3        1 MOL1        -0.1985
       5    H1      20.376099   18.891904   25.037048 H          1 MOL1         0.0740
       6    H2      20.745911   20.138423   23.842298 H          1 MOL1         0.0740
       7    C3      18.981572   18.935775   23.353860 C.3        1 MOL1        -0.1882
       8    H3      18.129108   18.510993   23.901549 H          1 MOL1         0.0742
       9    H4      18.560177   19.683434   22.668836 H          1 MOL1         0.0742
      10    C4      19.666079   17.802321   22.549405 C.3        1 MOL1        -0.1880
      11    H5      18.919792   17.328371   21.898328 H          1 MOL1         0.0742
      12    H6      19.991423   17.019067   23.247410 H          1 MOL1         0.0742
      13    C5      20.884888   18.241547   21.695736 C.3        1 MOL1        -0.1880
      14    H7      21.696838   18.564470   22.360349 H          1 MOL1         0.0742
      15    H8      21.271604   17.363747   21.160516 H          1 MOL1         0.0742
      16    C6      20.599806   19.365362   20.669238 C.3        1 MOL1        -0.1856
      17    H9      21.535354   19.608454   20.147161 H          1 MOL1         0.0742
      18    H10     20.294402   20.283471   21.188667 H          1 MOL1         0.0742
      19    C7      19.532642   18.978901   19.622524 C.3        1 MOL1        -0.2871
      20    H11     19.810312   18.053267   19.101895 H          1 MOL1         0.0754
      21    H12     19.426729   19.771741   18.870903 H          1 MOL1         0.0754
      22    H13     18.551278   18.830236   20.090262 H          1 MOL1         0.0754
@<TRIPOS>BOND
    1     1     2    1
    2     1     3    2
    3     1     4    1
    4     4     5    1
    5     4     6    1
    6     4     7    1
    7     7     8    1
    8     7     9    1
    9     7    10    1
   10    10    11    1
   11    10    12    1
   12    10    13    1
   13    13    14    1
   14    13    15    1
   15    13    16    1
   16    16    17    1
   17    16    18    1
   18    16    19    1
   19    19    20    1
   20    19    21    1
   21    19    22    1
@<TRIPOS>SUBSTRUCTURE
       1 MOL1            1 RESIDUE      1      MOL     
@<SCITEGIC>MOL_PROPERTY
VConf Rank
SciTegic.value.IntegerValue
40

@<SCITEGIC>MOL_PROPERTY
Conf_Id
SciTegic.value.IntegerValue
56

@<SCITEGIC>MOL_PROPERTY
Delta U+W
SciTegic.value.DoubleValue
0.853

@<SCITEGIC>MOL_PROPERTY
U+W
SciTegic.value.DoubleValue
-52.307

@<SCITEGIC>MOL_PROPERTY
Grad RMS
SciTegic.value.DoubleValue
0.000000

@<SCITEGIC>MOL_PROPERTY
U
SciTegic.value.DoubleValue
8.874

@<SCITEGIC>MOL_PROPERTY
W
SciTegic.value.DoubleValue
-61.181

@<SCITEGIC>MOL_PROPERTY
W(PB)
SciTegic.value.DoubleValue
-63.413

@<SCITEGIC>MOL_PROPERTY
W(SA)
SciTegic.value.DoubleValue
2.232

@<SCITEGIC>MOL_PROPERTY
Valence
SciTegic.value.DoubleValue
8.479

@<SCITEGIC>MOL_PROPERTY
Coulomb
SciTegic.value.DoubleValue
-0.357

@<SCITEGIC>MOL_PROPERTY
VdW
SciTegic.value.DoubleValue
0.753

@<SCITEGIC>MOL_PROPERTY
VdW6
SciTegic.value.DoubleValue
-9.081

@<SCITEGIC>MOL_PROPERTY
VdW12
SciTegic.value.DoubleValue
9.833

@<SCITEGIC>MOL_PROPERTY
Bond
SciTegic.value.DoubleValue
0.221

@<SCITEGIC>MOL_PROPERTY
Angle
SciTegic.value.DoubleValue
3.208

@<SCITEGIC>MOL_PROPERTY
Pdih
SciTegic.value.DoubleValue
5.050

@<SCITEGIC>MOL_PROPERTY
Idih
SciTegic.value.DoubleValue
0.000

@<SCITEGIC>MOL_PROPERTY
Tether
SciTegic.value.DoubleValue
0.000

@<TRIPOS>MOLECULE
guest-s21_confgen4.mol2 : confsearch ligand conformer 41
          22          21           1
SMALL
USER_CHARGES
 
@<TRIPOS>ATOM
       1    C1      16.527139   20.770148   23.651779 C.2        1 MOL1         0.6145
       2    O1      16.393092   21.476077   22.670913 O.co2      1 MOL1        -0.6735
       3    O2      15.776890   20.811493   24.606419 O.co2      1 MOL1        -0.6735
       4    C2      17.685330   19.773210   23.716856 C.3        1 MOL1        -0.1985
       5    H1      17.251744   18.777726   23.868461 H          1 MOL1         0.0740
       6    H2      18.269565   20.008846   24.614136 H          1 MOL1         0.0740
       7    C3      18.615627   19.756367   22.474813 C.3        1 MOL1        -0.1882
       8    H3      18.022992   19.525873   21.578628 H          1 MOL1         0.0742
       9    H4      19.041886   20.758052   22.325079 H          1 MOL1         0.0742
      10    C4      19.754401   18.724194   22.624227 C.3        1 MOL1        -0.1880
      11    H5      19.325838   17.723650   22.773805 H          1 MOL1         0.0742
      12    H6      20.345345   18.956584   23.520837 H          1 MOL1         0.0742
      13    C5      20.678620   18.709154   21.387739 C.3        1 MOL1        -0.1880
      14    H7      20.088094   18.476856   20.490832 H          1 MOL1         0.0742
      15    H8      21.107460   19.709521   21.237775 H          1 MOL1         0.0742
      16    C6      21.816806   17.677868   21.536344 C.3        1 MOL1        -0.1856
      17    H9      21.391601   16.675506   21.684491 H          1 MOL1         0.0742
      18    H10     22.410985   17.908197   22.431539 H          1 MOL1         0.0742
      19    C7      22.737482   17.666017   20.299593 C.3        1 MOL1        -0.2871
      20    H11     22.174465   17.407208   19.393262 H          1 MOL1         0.0754
      21    H12     23.540509   16.927626   20.422142 H          1 MOL1         0.0754
      22    H13     23.201535   18.649102   20.145949 H          1 MOL1         0.0754
@<TRIPOS>BOND
    1     1     2    1
    2     1     3    2
    3     1     4    1
    4     4     5    1
    5     4     6    1
    6     4     7    1
    7     7     8    1
    8     7     9    1
    9     7    10    1
   10    10    11    1
   11    10    12    1
   12    10    13    1
   13    13    14    1
   14    13    15    1
   15    13    16    1
   16    16    17    1
   17    16    18    1
   18    16    19    1
   19    19    20    1
   20    19    21    1
   21    19    22    1
@<TRIPOS>SUBSTRUCTURE
       1 MOL1            1 RESIDUE      1      MOL     
@<SCITEGIC>MOL_PROPERTY
VConf Rank
SciTegic.value.IntegerValue
41

@<SCITEGIC>MOL_PROPERTY
Conf_Id
SciTegic.value.IntegerValue
0

@<SCITEGIC>MOL_PROPERTY
Delta U+W
SciTegic.value.DoubleValue
0.000

@<SCITEGIC>MOL_PROPERTY
U+W
SciTegic.value.DoubleValue
-53.159

@<SCITEGIC>MOL_PROPERTY
Grad RMS
SciTegic.value.DoubleValue
0.000000

@<SCITEGIC>MOL_PROPERTY
U
SciTegic.value.DoubleValue
6.763

@<SCITEGIC>MOL_PROPERTY
W
SciTegic.value.DoubleValue
-59.922

@<SCITEGIC>MOL_PROPERTY
W(PB)
SciTegic.value.DoubleValue
-62.256

@<SCITEGIC>MOL_PROPERTY
W(SA)
SciTegic.value.DoubleValue
2.334

@<SCITEGIC>MOL_PROPERTY
Valence
SciTegic.value.DoubleValue
7.600

@<SCITEGIC>MOL_PROPERTY
Coulomb
SciTegic.value.DoubleValue
-2.139

@<SCITEGIC>MOL_PROPERTY
VdW
SciTegic.value.DoubleValue
1.302

@<SCITEGIC>MOL_PROPERTY
VdW6
SciTegic.value.DoubleValue
-6.786

@<SCITEGIC>MOL_PROPERTY
VdW12
SciTegic.value.DoubleValue
8.088

@<SCITEGIC>MOL_PROPERTY
Bond
SciTegic.value.DoubleValue
0.134

@<SCITEGIC>MOL_PROPERTY
Angle
SciTegic.value.DoubleValue
2.720

@<SCITEGIC>MOL_PROPERTY
Pdih
SciTegic.value.DoubleValue
4.746

@<SCITEGIC>MOL_PROPERTY
Idih
SciTegic.value.DoubleValue
0.000

@<SCITEGIC>MOL_PROPERTY
Tether
SciTegic.value.DoubleValue
0.000

@<TRIPOS>MOLECULE
guest-s21_confgen4.mol2 : confsearch ligand conformer 42
          22          21           1
SMALL
USER_CHARGES
 
@<TRIPOS>ATOM
       1    C1      20.346381   21.550326   19.121903 C.2        1 MOL1         0.6145
       2    O1      19.773853   21.239789   18.096130 O.co2      1 MOL1        -0.6735
       3    O2      21.410376   22.136562   19.147857 O.co2      1 MOL1        -0.6735
       4    C2      19.705174   21.163176   20.449751 C.3        1 MOL1        -0.1985
       5    H1      18.616200   21.190403   20.323038 H          1 MOL1         0.0740
       6    H2      19.964733   21.929751   21.189787 H          1 MOL1         0.0740
       7    C3      20.150519   19.766357   20.948365 C.3        1 MOL1        -0.1882
       8    H3      19.895388   19.012297   20.190820 H          1 MOL1         0.0742
       9    H4      21.243880   19.751622   21.057544 H          1 MOL1         0.0742
      10    C4      19.487968   19.397969   22.293429 C.3        1 MOL1        -0.1880
      11    H5      18.395136   19.414825   22.181143 H          1 MOL1         0.0742
      12    H6      19.743942   20.154370   23.048086 H          1 MOL1         0.0742
      13    C5      19.933786   18.005142   22.787970 C.3        1 MOL1        -0.1880
      14    H7      19.677995   17.248450   22.033573 H          1 MOL1         0.0742
      15    H8      21.026578   17.987868   22.900373 H          1 MOL1         0.0742
      16    C6      19.272024   17.636235   24.132235 C.3        1 MOL1        -0.1856
      17    H9      18.178682   17.650491   24.023252 H          1 MOL1         0.0742
      18    H10     19.527252   18.389919   24.890058 H          1 MOL1         0.0742
      19    C7      19.719767   16.244711   24.622671 C.3        1 MOL1        -0.2871
      20    H11     20.807151   16.211523   24.770661 H          1 MOL1         0.0754
      21    H12     19.448547   15.466535   23.897213 H          1 MOL1         0.0754
      22    H13     19.239946   15.998656   25.578873 H          1 MOL1         0.0754
@<TRIPOS>BOND
    1     1     2    1
    2     1     3    2
    3     1     4    1
    4     4     5    1
    5     4     6    1
    6     4     7    1
    7     7     8    1
    8     7     9    1
    9     7    10    1
   10    10    11    1
   11    10    12    1
   12    10    13    1
   13    13    14    1
   14    13    15    1
   15    13    16    1
   16    16    17    1
   17    16    18    1
   18    16    19    1
   19    19    20    1
   20    19    21    1
   21    19    22    1
@<TRIPOS>SUBSTRUCTURE
       1 MOL1            1 RESIDUE      1      MOL     
@<SCITEGIC>MOL_PROPERTY
VConf Rank
SciTegic.value.IntegerValue
42

@<SCITEGIC>MOL_PROPERTY
Conf_Id
SciTegic.value.IntegerValue
10

@<SCITEGIC>MOL_PROPERTY
Delta U+W
SciTegic.value.DoubleValue
-1.291

@<SCITEGIC>MOL_PROPERTY
U+W
SciTegic.value.DoubleValue
-54.451

@<SCITEGIC>MOL_PROPERTY
Grad RMS
SciTegic.value.DoubleValue
0.000000

@<SCITEGIC>MOL_PROPERTY
U
SciTegic.value.DoubleValue
5.779

@<SCITEGIC>MOL_PROPERTY
W
SciTegic.value.DoubleValue
-60.230

@<SCITEGIC>MOL_PROPERTY
W(PB)
SciTegic.value.DoubleValue
-62.557

@<SCITEGIC>MOL_PROPERTY
W(SA)
SciTegic.value.DoubleValue
2.328

@<SCITEGIC>MOL_PROPERTY
Valence
SciTegic.value.DoubleValue
7.101

@<SCITEGIC>MOL_PROPERTY
Coulomb
SciTegic.value.DoubleValue
-2.079

@<SCITEGIC>MOL_PROPERTY
VdW
SciTegic.value.DoubleValue
0.757

@<SCITEGIC>MOL_PROPERTY
VdW6
SciTegic.value.DoubleValue
-6.496

@<SCITEGIC>MOL_PROPERTY
VdW12
SciTegic.value.DoubleValue
7.253

@<SCITEGIC>MOL_PROPERTY
Bond
SciTegic.value.DoubleValue
0.100

@<SCITEGIC>MOL_PROPERTY
Angle
SciTegic.value.DoubleValue
2.262

@<SCITEGIC>MOL_PROPERTY
Pdih
SciTegic.value.DoubleValue
4.738

@<SCITEGIC>MOL_PROPERTY
Idih
SciTegic.value.DoubleValue
0.001

@<SCITEGIC>MOL_PROPERTY
Tether
SciTegic.value.DoubleValue
0.000

@<TRIPOS>MOLECULE
guest-s21_confgen4.mol2 : confsearch ligand conformer 43
          22          21           1
SMALL
USER_CHARGES
 
@<TRIPOS>ATOM
       1    C1      22.449541   16.759760   20.265112 C.2        1 MOL1         0.6145
       2    O1      23.593795   16.944870   20.629624 O.co2      1 MOL1        -0.6735
       3    O2      22.060619   15.720321   19.770377 O.co2      1 MOL1        -0.6735
       4    C2      21.441100   17.886638   20.458506 C.3        1 MOL1        -0.1985
       5    H1      20.708559   17.831889   19.644239 H          1 MOL1         0.0740
       6    H2      21.971819   18.840566   20.353548 H          1 MOL1         0.0740
       7    C3      20.722627   17.822709   21.828857 C.3        1 MOL1        -0.1882
       8    H3      20.207646   16.856606   21.923464 H          1 MOL1         0.0742
       9    H4      21.470245   17.865981   22.633063 H          1 MOL1         0.0742
      10    C4      19.707546   18.973649   22.000009 C.3        1 MOL1        -0.1880
      11    H5      18.960343   18.926632   21.196062 H          1 MOL1         0.0742
      12    H6      20.230829   19.933160   21.896657 H          1 MOL1         0.0742
      13    C5      18.995779   18.907491   23.370874 C.3        1 MOL1        -0.1880
      14    H7      18.537219   17.916062   23.488029 H          1 MOL1         0.0742
      15    H8      19.735451   19.005397   24.177245 H          1 MOL1         0.0742
      16    C6      17.896004   19.980559   23.545018 C.3        1 MOL1        -0.1856
      17    H9      17.364651   19.790814   24.487831 H          1 MOL1         0.0742
      18    H10     17.150783   19.881694   22.743656 H          1 MOL1         0.0742
      19    C7      18.447067   21.422802   23.566873 C.3        1 MOL1        -0.2871
      20    H11     17.642267   22.137869   23.781105 H          1 MOL1         0.0754
      21    H12     18.887150   21.698375   22.600390 H          1 MOL1         0.0754
      22    H13     19.216380   21.537801   24.341513 H          1 MOL1         0.0754
@<TRIPOS>BOND
    1     1     2    1
    2     1     3    2
    3     1     4    1
    4     4     5    1
    5     4     6    1
    6     4     7    1
    7     7     8    1
    8     7     9    1
    9     7    10    1
   10    10    11    1
   11    10    12    1
   12    10    13    1
   13    13    14    1
   14    13    15    1
   15    13    16    1
   16    16    17    1
   17    16    18    1
   18    16    19    1
   19    19    20    1
   20    19    21    1
   21    19    22    1
@<TRIPOS>SUBSTRUCTURE
       1 MOL1            1 RESIDUE      1      MOL     
@<SCITEGIC>MOL_PROPERTY
VConf Rank
SciTegic.value.IntegerValue
43

@<SCITEGIC>MOL_PROPERTY
Conf_Id
SciTegic.value.IntegerValue
37

@<SCITEGIC>MOL_PROPERTY
Delta U+W
SciTegic.value.DoubleValue
-0.345

@<SCITEGIC>MOL_PROPERTY
U+W
SciTegic.value.DoubleValue
-53.504

@<SCITEGIC>MOL_PROPERTY
Grad RMS
SciTegic.value.DoubleValue
0.000000

@<SCITEGIC>MOL_PROPERTY
U
SciTegic.value.DoubleValue
6.751

@<SCITEGIC>MOL_PROPERTY
W
SciTegic.value.DoubleValue
-60.255

@<SCITEGIC>MOL_PROPERTY
W(PB)
SciTegic.value.DoubleValue
-62.592

@<SCITEGIC>MOL_PROPERTY
W(SA)
SciTegic.value.DoubleValue
2.336

@<SCITEGIC>MOL_PROPERTY
Valence
SciTegic.value.DoubleValue
7.602

@<SCITEGIC>MOL_PROPERTY
Coulomb
SciTegic.value.DoubleValue
-1.744

@<SCITEGIC>MOL_PROPERTY
VdW
SciTegic.value.DoubleValue
0.894

@<SCITEGIC>MOL_PROPERTY
VdW6
SciTegic.value.DoubleValue
-7.110

@<SCITEGIC>MOL_PROPERTY
VdW12
SciTegic.value.DoubleValue
8.004

@<SCITEGIC>MOL_PROPERTY
Bond
SciTegic.value.DoubleValue
0.131

@<SCITEGIC>MOL_PROPERTY
Angle
SciTegic.value.DoubleValue
2.489

@<SCITEGIC>MOL_PROPERTY
Pdih
SciTegic.value.DoubleValue
4.982

@<SCITEGIC>MOL_PROPERTY
Idih
SciTegic.value.DoubleValue
0.001

@<SCITEGIC>MOL_PROPERTY
Tether
SciTegic.value.DoubleValue
0.000

@<TRIPOS>MOLECULE
guest-s21_confgen4.mol2 : confsearch ligand conformer 44
          22          21           1
SMALL
USER_CHARGES
 
@<TRIPOS>ATOM
       1    C1      16.521447   19.140611   20.116158 C.2        1 MOL1         0.6145
       2    O1      16.731421   19.255059   18.924829 O.co2      1 MOL1        -0.6735
       3    O2      15.508472   19.531539   20.661608 O.co2      1 MOL1        -0.6735
       4    C2      17.597859   18.490000   20.977699 C.3        1 MOL1        -0.1985
       5    H1      18.110371   17.734655   20.369881 H          1 MOL1         0.0740
       6    H2      17.102231   17.961810   21.801114 H          1 MOL1         0.0740
       7    C3      18.620224   19.510435   21.535945 C.3        1 MOL1        -0.1882
       8    H3      19.098618   20.039361   20.699928 H          1 MOL1         0.0742
       9    H4      18.089554   20.267031   22.130473 H          1 MOL1         0.0742
      10    C4      19.698788   18.827187   22.404405 C.3        1 MOL1        -0.1880
      11    H5      20.217396   18.068908   21.803384 H          1 MOL1         0.0742
      12    H6      19.217893   18.301204   23.240430 H          1 MOL1         0.0742
      13    C5      20.719035   19.849475   22.956025 C.3        1 MOL1        -0.1880
      14    H7      21.238376   20.341147   22.122071 H          1 MOL1         0.0742
      15    H8      20.177913   20.639437   23.494619 H          1 MOL1         0.0742
      16    C6      21.758126   19.224453   23.915686 C.3        1 MOL1        -0.1856
      17    H9      21.242479   18.737174   24.754719 H          1 MOL1         0.0742
      18    H10     22.365455   20.030162   24.350680 H          1 MOL1         0.0742
      19    C7      22.697243   18.212144   23.224673 C.3        1 MOL1        -0.2871
      20    H11     23.201743   18.668830   22.363248 H          1 MOL1         0.0754
      21    H12     22.147263   17.329896   22.874151 H          1 MOL1         0.0754
      22    H13     23.469318   17.865828   23.923877 H          1 MOL1         0.0754
@<TRIPOS>BOND
    1     1     2    1
    2     1     3    2
    3     1     4    1
    4     4     5    1
    5     4     6    1
    6     4     7    1
    7     7     8    1
    8     7     9    1
    9     7    10    1
   10    10    11    1
   11    10    12    1
   12    10    13    1
   13    13    14    1
   14    13    15    1
   15    13    16    1
   16    16    17    1
   17    16    18    1
   18    16    19    1
   19    19    20    1
   20    19    21    1
   21    19    22    1
@<TRIPOS>SUBSTRUCTURE
       1 MOL1            1 RESIDUE      1      MOL     
@<SCITEGIC>MOL_PROPERTY
VConf Rank
SciTegic.value.IntegerValue
44

@<SCITEGIC>MOL_PROPERTY
Conf_Id
SciTegic.value.IntegerValue
38

@<SCITEGIC>MOL_PROPERTY
Delta U+W
SciTegic.value.DoubleValue
-0.439

@<SCITEGIC>MOL_PROPERTY
U+W
SciTegic.value.DoubleValue
-53.598

@<SCITEGIC>MOL_PROPERTY
Grad RMS
SciTegic.value.DoubleValue
0.000000

@<SCITEGIC>MOL_PROPERTY
U
SciTegic.value.DoubleValue
6.751

@<SCITEGIC>MOL_PROPERTY
W
SciTegic.value.DoubleValue
-60.350

@<SCITEGIC>MOL_PROPERTY
W(PB)
SciTegic.value.DoubleValue
-62.659

@<SCITEGIC>MOL_PROPERTY
W(SA)
SciTegic.value.DoubleValue
2.309

@<SCITEGIC>MOL_PROPERTY
Valence
SciTegic.value.DoubleValue
7.602

@<SCITEGIC>MOL_PROPERTY
Coulomb
SciTegic.value.DoubleValue
-1.744

@<SCITEGIC>MOL_PROPERTY
VdW
SciTegic.value.DoubleValue
0.893

@<SCITEGIC>MOL_PROPERTY
VdW6
SciTegic.value.DoubleValue
-7.110

@<SCITEGIC>MOL_PROPERTY
VdW12
SciTegic.value.DoubleValue
8.004

@<SCITEGIC>MOL_PROPERTY
Bond
SciTegic.value.DoubleValue
0.131

@<SCITEGIC>MOL_PROPERTY
Angle
SciTegic.value.DoubleValue
2.489

@<SCITEGIC>MOL_PROPERTY
Pdih
SciTegic.value.DoubleValue
4.981

@<SCITEGIC>MOL_PROPERTY
Idih
SciTegic.value.DoubleValue
0.001

@<SCITEGIC>MOL_PROPERTY
Tether
SciTegic.value.DoubleValue
0.000

@<TRIPOS>MOLECULE
guest-s21_confgen4.mol2 : confsearch ligand conformer 45
          22          21           1
SMALL
USER_CHARGES
 
@<TRIPOS>ATOM
       1    C1      16.631065   19.499747   24.094253 C.2        1 MOL1         0.6145
       2    O1      15.535435   19.396271   23.579035 O.co2      1 MOL1        -0.6735
       3    O2      16.833606   20.104369   25.128633 O.co2      1 MOL1        -0.6735
       4    C2      17.820656   18.854566   23.392182 C.3        1 MOL1        -0.1985
       5    H1      17.463556   17.956434   22.874248 H          1 MOL1         0.0740
       6    H2      18.524810   18.526619   24.164889 H          1 MOL1         0.0740
       7    C3      18.514880   19.811009   22.387751 C.3        1 MOL1        -0.1882
       8    H3      17.758759   20.194983   21.688973 H          1 MOL1         0.0742
       9    H4      18.911477   20.683570   22.925005 H          1 MOL1         0.0742
      10    C4      19.645999   19.140352   21.571963 C.3        1 MOL1        -0.1880
      11    H5      19.972933   19.848207   20.799704 H          1 MOL1         0.0742
      12    H6      19.248096   18.263733   21.042925 H          1 MOL1         0.0742
      13    C5      20.862312   18.722725   22.434628 C.3        1 MOL1        -0.1880
      14    H7      21.258994   19.599115   22.964992 H          1 MOL1         0.0742
      15    H8      20.537391   18.012515   23.205412 H          1 MOL1         0.0742
      16    C6      21.994391   18.056470   21.618161 C.3        1 MOL1        -0.1856
      17    H9      21.598950   17.185876   21.076881 H          1 MOL1         0.0742
      18    H10     22.750211   17.670347   22.315937 H          1 MOL1         0.0742
      19    C7      22.683398   19.017767   20.625271 C.3        1 MOL1        -0.2871
      20    H11     21.995881   19.337063   19.832305 H          1 MOL1         0.0754
      21    H12     23.537640   18.524172   20.144071 H          1 MOL1         0.0754
      22    H13     23.056517   19.912929   21.139656 H          1 MOL1         0.0754
@<TRIPOS>BOND
    1     1     2    1
    2     1     3    2
    3     1     4    1
    4     4     5    1
    5     4     6    1
    6     4     7    1
    7     7     8    1
    8     7     9    1
    9     7    10    1
   10    10    11    1
   11    10    12    1
   12    10    13    1
   13    13    14    1
   14    13    15    1
   15    13    16    1
   16    16    17    1
   17    16    18    1
   18    16    19    1
   19    19    20    1
   20    19    21    1
   21    19    22    1
@<TRIPOS>SUBSTRUCTURE
       1 MOL1            1 RESIDUE      1      MOL     
@<SCITEGIC>MOL_PROPERTY
VConf Rank
SciTegic.value.IntegerValue
45

@<SCITEGIC>MOL_PROPERTY
Conf_Id
SciTegic.value.IntegerValue
60

@<SCITEGIC>MOL_PROPERTY
Delta U+W
SciTegic.value.DoubleValue
0.386

@<SCITEGIC>MOL_PROPERTY
U+W
SciTegic.value.DoubleValue
-52.773

@<SCITEGIC>MOL_PROPERTY
Grad RMS
SciTegic.value.DoubleValue
0.000000

@<SCITEGIC>MOL_PROPERTY
U
SciTegic.value.DoubleValue
7.689

@<SCITEGIC>MOL_PROPERTY
W
SciTegic.value.DoubleValue
-60.463

@<SCITEGIC>MOL_PROPERTY
W(PB)
SciTegic.value.DoubleValue
-62.772

@<SCITEGIC>MOL_PROPERTY
W(SA)
SciTegic.value.DoubleValue
2.309

@<SCITEGIC>MOL_PROPERTY
Valence
SciTegic.value.DoubleValue
8.197

@<SCITEGIC>MOL_PROPERTY
Coulomb
SciTegic.value.DoubleValue
-1.561

@<SCITEGIC>MOL_PROPERTY
VdW
SciTegic.value.DoubleValue
1.053

@<SCITEGIC>MOL_PROPERTY
VdW6
SciTegic.value.DoubleValue
-7.737

@<SCITEGIC>MOL_PROPERTY
VdW12
SciTegic.value.DoubleValue
8.790

@<SCITEGIC>MOL_PROPERTY
Bond
SciTegic.value.DoubleValue
0.181

@<SCITEGIC>MOL_PROPERTY
Angle
SciTegic.value.DoubleValue
2.780

@<SCITEGIC>MOL_PROPERTY
Pdih
SciTegic.value.DoubleValue
5.235

@<SCITEGIC>MOL_PROPERTY
Idih
SciTegic.value.DoubleValue
0.001

@<SCITEGIC>MOL_PROPERTY
Tether
SciTegic.value.DoubleValue
0.000

@<TRIPOS>MOLECULE
guest-s21_confgen4.mol2 : confsearch ligand conformer 46
          22          21           1
SMALL
USER_CHARGES
 
@<TRIPOS>ATOM
       1    C1      18.123587   19.968244   19.042513 C.2        1 MOL1         0.6145
       2    O1      18.922286   20.482204   18.284582 O.co2      1 MOL1        -0.6735
       3    O2      16.919758   20.098744   18.940896 O.co2      1 MOL1        -0.6735
       4    C2      18.662154   19.132119   20.197990 C.3        1 MOL1        -0.1985
       5    H1      19.581641   18.644715   19.855287 H          1 MOL1         0.0740
       6    H2      17.934343   18.340621   20.413018 H          1 MOL1         0.0740
       7    C3      18.929874   19.973589   21.473086 C.3        1 MOL1        -0.1882
       8    H3      19.696059   20.731560   21.259228 H          1 MOL1         0.0742
       9    H4      18.013599   20.523242   21.729538 H          1 MOL1         0.0742
      10    C4      19.357463   19.128150   22.696655 C.3        1 MOL1        -0.1880
      11    H5      18.593396   18.366278   22.902617 H          1 MOL1         0.0742
      12    H6      19.383110   19.788287   23.572947 H          1 MOL1         0.0742
      13    C5      20.738717   18.449809   22.523423 C.3        1 MOL1        -0.1880
      14    H7      20.713550   17.786946   21.649319 H          1 MOL1         0.0742
      15    H8      21.502360   19.211620   22.315587 H          1 MOL1         0.0742
      16    C6      21.167657   17.608639   23.748395 C.3        1 MOL1        -0.1856
      17    H9      22.082643   17.056777   23.492475 H          1 MOL1         0.0742
      18    H10     20.400724   16.852690   23.966681 H          1 MOL1         0.0742
      19    C7      21.437944   18.455605   25.011030 C.3        1 MOL1        -0.2871
      20    H11     22.177214   19.240976   24.806587 H          1 MOL1         0.0754
      21    H12     21.830333   17.824657   25.819024 H          1 MOL1         0.0754
      22    H13     20.521040   18.932408   25.378957 H          1 MOL1         0.0754
@<TRIPOS>BOND
    1     1     2    1
    2     1     3    2
    3     1     4    1
    4     4     5    1
    5     4     6    1
    6     4     7    1
    7     7     8    1
    8     7     9    1
    9     7    10    1
   10    10    11    1
   11    10    12    1
   12    10    13    1
   13    13    14    1
   14    13    15    1
   15    13    16    1
   16    16    17    1
   17    16    18    1
   18    16    19    1
   19    19    20    1
   20    19    21    1
   21    19    22    1
@<TRIPOS>SUBSTRUCTURE
       1 MOL1            1 RESIDUE      1      MOL     
@<SCITEGIC>MOL_PROPERTY
VConf Rank
SciTegic.value.IntegerValue
46

@<SCITEGIC>MOL_PROPERTY
Conf_Id
SciTegic.value.IntegerValue
28

@<SCITEGIC>MOL_PROPERTY
Delta U+W
SciTegic.value.DoubleValue
0.351

@<SCITEGIC>MOL_PROPERTY
U+W
SciTegic.value.DoubleValue
-52.808

@<SCITEGIC>MOL_PROPERTY
Grad RMS
SciTegic.value.DoubleValue
0.000000

@<SCITEGIC>MOL_PROPERTY
U
SciTegic.value.DoubleValue
7.689

@<SCITEGIC>MOL_PROPERTY
W
SciTegic.value.DoubleValue
-60.498

@<SCITEGIC>MOL_PROPERTY
W(PB)
SciTegic.value.DoubleValue
-62.768

@<SCITEGIC>MOL_PROPERTY
W(SA)
SciTegic.value.DoubleValue
2.270

@<SCITEGIC>MOL_PROPERTY
Valence
SciTegic.value.DoubleValue
8.197

@<SCITEGIC>MOL_PROPERTY
Coulomb
SciTegic.value.DoubleValue
-1.561

@<SCITEGIC>MOL_PROPERTY
VdW
SciTegic.value.DoubleValue
1.053

@<SCITEGIC>MOL_PROPERTY
VdW6
SciTegic.value.DoubleValue
-7.737

@<SCITEGIC>MOL_PROPERTY
VdW12
SciTegic.value.DoubleValue
8.791

@<SCITEGIC>MOL_PROPERTY
Bond
SciTegic.value.DoubleValue
0.181

@<SCITEGIC>MOL_PROPERTY
Angle
SciTegic.value.DoubleValue
2.780

@<SCITEGIC>MOL_PROPERTY
Pdih
SciTegic.value.DoubleValue
5.235

@<SCITEGIC>MOL_PROPERTY
Idih
SciTegic.value.DoubleValue
0.001

@<SCITEGIC>MOL_PROPERTY
Tether
SciTegic.value.DoubleValue
0.000

@<TRIPOS>MOLECULE
guest-s21_confgen4.mol2 : confsearch ligand conformer 47
          22          21           1
SMALL
USER_CHARGES
 
@<TRIPOS>ATOM
       1    C1      19.396748   15.191305   22.306223 C.2        1 MOL1         0.6145
       2    O1      18.466474   14.758782   21.655080 O.co2      1 MOL1        -0.6735
       3    O2      20.493316   14.669111   22.342388 O.co2      1 MOL1        -0.6735
       4    C2      19.181993   16.471121   23.106393 C.3        1 MOL1        -0.1985
       5    H1      19.808488   16.420367   24.005046 H          1 MOL1         0.0740
       6    H2      18.137529   16.492922   23.439915 H          1 MOL1         0.0740
       7    C3      19.512231   17.749324   22.296810 C.3        1 MOL1        -0.1882
       8    H3      20.555022   17.694557   21.957611 H          1 MOL1         0.0742
       9    H4      18.883376   17.780817   21.396335 H          1 MOL1         0.0742
      10    C4      19.290424   19.030880   23.133157 C.3        1 MOL1        -0.1880
      11    H5      19.957555   19.024144   24.006014 H          1 MOL1         0.0742
      12    H6      18.264466   19.027498   23.526045 H          1 MOL1         0.0742
      13    C5      19.502592   20.335716   22.329448 C.3        1 MOL1        -0.1880
      14    H7      18.832746   20.344712   21.458725 H          1 MOL1         0.0742
      15    H8      19.204167   21.184823   22.959439 H          1 MOL1         0.0742
      16    C6      20.962108   20.544032   21.866083 C.3        1 MOL1        -0.1856
      17    H9      21.256271   19.746305   21.171492 H          1 MOL1         0.0742
      18    H10     21.637768   20.482464   22.730317 H          1 MOL1         0.0742
      19    C7      21.144868   21.907505   21.169482 C.3        1 MOL1        -0.2871
      20    H11     20.895989   22.732980   21.849193 H          1 MOL1         0.0754
      21    H12     20.499890   21.985537   20.284440 H          1 MOL1         0.0754
      22    H13     22.184877   22.038987   20.843655 H          1 MOL1         0.0754
@<TRIPOS>BOND
    1     1     2    1
    2     1     3    2
    3     1     4    1
    4     4     5    1
    5     4     6    1
    6     4     7    1
    7     7     8    1
    8     7     9    1
    9     7    10    1
   10    10    11    1
   11    10    12    1
   12    10    13    1
   13    13    14    1
   14    13    15    1
   15    13    16    1
   16    16    17    1
   17    16    18    1
   18    16    19    1
   19    19    20    1
   20    19    21    1
   21    19    22    1
@<TRIPOS>SUBSTRUCTURE
       1 MOL1            1 RESIDUE      1      MOL     
@<SCITEGIC>MOL_PROPERTY
VConf Rank
SciTegic.value.IntegerValue
47

@<SCITEGIC>MOL_PROPERTY
Conf_Id
SciTegic.value.IntegerValue
50

@<SCITEGIC>MOL_PROPERTY
Delta U+W
SciTegic.value.DoubleValue
-0.486

@<SCITEGIC>MOL_PROPERTY
U+W
SciTegic.value.DoubleValue
-53.646

@<SCITEGIC>MOL_PROPERTY
Grad RMS
SciTegic.value.DoubleValue
0.000000

@<SCITEGIC>MOL_PROPERTY
U
SciTegic.value.DoubleValue
7.026

@<SCITEGIC>MOL_PROPERTY
W
SciTegic.value.DoubleValue
-60.672

@<SCITEGIC>MOL_PROPERTY
W(PB)
SciTegic.value.DoubleValue
-62.964

@<SCITEGIC>MOL_PROPERTY
W(SA)
SciTegic.value.DoubleValue
2.292

@<SCITEGIC>MOL_PROPERTY
Valence
SciTegic.value.DoubleValue
7.637

@<SCITEGIC>MOL_PROPERTY
Coulomb
SciTegic.value.DoubleValue
-1.488

@<SCITEGIC>MOL_PROPERTY
VdW
SciTegic.value.DoubleValue
0.877

@<SCITEGIC>MOL_PROPERTY
VdW6
SciTegic.value.DoubleValue
-7.165

@<SCITEGIC>MOL_PROPERTY
VdW12
SciTegic.value.DoubleValue
8.043

@<SCITEGIC>MOL_PROPERTY
Bond
SciTegic.value.DoubleValue
0.134

@<SCITEGIC>MOL_PROPERTY
Angle
SciTegic.value.DoubleValue
2.513

@<SCITEGIC>MOL_PROPERTY
Pdih
SciTegic.value.DoubleValue
4.990

@<SCITEGIC>MOL_PROPERTY
Idih
SciTegic.value.DoubleValue
0.001

@<SCITEGIC>MOL_PROPERTY
Tether
SciTegic.value.DoubleValue
0.000

@<TRIPOS>MOLECULE
guest-s21_confgen4.mol2 : confsearch ligand conformer 48
          22          21           1
SMALL
USER_CHARGES
 
@<TRIPOS>ATOM
       1    C1      20.954917   15.828110   20.740162 C.2        1 MOL1         0.6145
       2    O1      21.891981   15.280711   21.286730 O.co2      1 MOL1        -0.6735
       3    O2      20.846384   15.932372   19.534423 O.co2      1 MOL1        -0.6735
       4    C2      19.865228   16.435693   21.616376 C.3        1 MOL1        -0.1985
       5    H1      19.774317   15.822424   22.520948 H          1 MOL1         0.0740
       6    H2      18.913272   16.361327   21.077026 H          1 MOL1         0.0740
       7    C3      20.150334   17.909899   21.995492 C.3        1 MOL1        -0.1882
       8    H3      21.110493   17.968601   22.526485 H          1 MOL1         0.0742
       9    H4      20.256872   18.498468   21.074783 H          1 MOL1         0.0742
      10    C4      19.028195   18.501737   22.879573 C.3        1 MOL1        -0.1880
      11    H5      18.886295   17.855230   23.756418 H          1 MOL1         0.0742
      12    H6      18.077720   18.491400   22.328685 H          1 MOL1         0.0742
      13    C5      19.325012   19.937709   23.372974 C.3        1 MOL1        -0.1880
      14    H7      18.543931   20.228026   24.088905 H          1 MOL1         0.0742
      15    H8      20.273444   19.947743   23.927327 H          1 MOL1         0.0742
      16    C6      19.375467   20.982462   22.235329 C.3        1 MOL1        -0.1856
      17    H9      18.448012   20.936083   21.648061 H          1 MOL1         0.0742
      18    H10     20.201514   20.754990   21.548844 H          1 MOL1         0.0742
      19    C7      19.561219   22.410350   22.787007 C.3        1 MOL1        -0.2871
      20    H11     20.496272   22.492411   23.356505 H          1 MOL1         0.0754
      21    H12     18.730651   22.687232   23.449464 H          1 MOL1         0.0754
      22    H13     19.598338   23.139779   21.967480 H          1 MOL1         0.0754
@<TRIPOS>BOND
    1     1     2    1
    2     1     3    2
    3     1     4    1
    4     4     5    1
    5     4     6    1
    6     4     7    1
    7     7     8    1
    8     7     9    1
    9     7    10    1
   10    10    11    1
   11    10    12    1
   12    10    13    1
   13    13    14    1
   14    13    15    1
   15    13    16    1
   16    16    17    1
   17    16    18    1
   18    16    19    1
   19    19    20    1
   20    19    21    1
   21    19    22    1
@<TRIPOS>SUBSTRUCTURE
       1 MOL1            1 RESIDUE      1      MOL     
@<SCITEGIC>MOL_PROPERTY
VConf Rank
SciTegic.value.IntegerValue
48

@<SCITEGIC>MOL_PROPERTY
Conf_Id
SciTegic.value.IntegerValue
51

@<SCITEGIC>MOL_PROPERTY
Delta U+W
SciTegic.value.DoubleValue
-0.517

@<SCITEGIC>MOL_PROPERTY
U+W
SciTegic.value.DoubleValue
-53.677

@<SCITEGIC>MOL_PROPERTY
Grad RMS
SciTegic.value.DoubleValue
0.000000

@<SCITEGIC>MOL_PROPERTY
U
SciTegic.value.DoubleValue
7.026

@<SCITEGIC>MOL_PROPERTY
W
SciTegic.value.DoubleValue
-60.703

@<SCITEGIC>MOL_PROPERTY
W(PB)
SciTegic.value.DoubleValue
-63.007

@<SCITEGIC>MOL_PROPERTY
W(SA)
SciTegic.value.DoubleValue
2.304

@<SCITEGIC>MOL_PROPERTY
Valence
SciTegic.value.DoubleValue
7.638

@<SCITEGIC>MOL_PROPERTY
Coulomb
SciTegic.value.DoubleValue
-1.488

@<SCITEGIC>MOL_PROPERTY
VdW
SciTegic.value.DoubleValue
0.877

@<SCITEGIC>MOL_PROPERTY
VdW6
SciTegic.value.DoubleValue
-7.165

@<SCITEGIC>MOL_PROPERTY
VdW12
SciTegic.value.DoubleValue
8.042

@<SCITEGIC>MOL_PROPERTY
Bond
SciTegic.value.DoubleValue
0.134

@<SCITEGIC>MOL_PROPERTY
Angle
SciTegic.value.DoubleValue
2.513

@<SCITEGIC>MOL_PROPERTY
Pdih
SciTegic.value.DoubleValue
4.990

@<SCITEGIC>MOL_PROPERTY
Idih
SciTegic.value.DoubleValue
0.001

@<SCITEGIC>MOL_PROPERTY
Tether
SciTegic.value.DoubleValue
0.000

@<TRIPOS>MOLECULE
guest-s21_confgen4.mol2 : confsearch ligand conformer 49
          22          21           1
SMALL
USER_CHARGES
 
@<TRIPOS>ATOM
       1    C1      18.098779   20.882232   24.467866 C.2        1 MOL1         0.6145
       2    O1      18.779867   21.565318   25.207065 O.co2      1 MOL1        -0.6735
       3    O2      17.333256   21.341566   23.643380 O.co2      1 MOL1        -0.6735
       4    C2      18.197887   19.364775   24.596845 C.3        1 MOL1        -0.1985
       5    H1      17.309859   18.915382   24.136020 H          1 MOL1         0.0740
       6    H2      18.157523   19.123180   25.665509 H          1 MOL1         0.0740
       7    C3      19.485640   18.761879   23.977813 C.3        1 MOL1        -0.1882
       8    H3      20.365390   19.241627   24.428961 H          1 MOL1         0.0742
       9    H4      19.539769   17.695607   24.236034 H          1 MOL1         0.0742
      10    C4      19.535241   18.917022   22.441240 C.3        1 MOL1        -0.1880
      11    H5      19.498789   19.982593   22.175462 H          1 MOL1         0.0742
      12    H6      18.647317   18.447426   21.996172 H          1 MOL1         0.0742
      13    C5      20.809422   18.282606   21.843386 C.3        1 MOL1        -0.1880
      14    H7      21.696882   18.752741   22.288915 H          1 MOL1         0.0742
      15    H8      20.846723   17.216291   22.105375 H          1 MOL1         0.0742
      16    C6      20.860039   18.437834   20.308985 C.3        1 MOL1        -0.1856
      17    H9      20.824722   19.503478   20.043168 H          1 MOL1         0.0742
      18    H10     19.974577   17.967213   19.859614 H          1 MOL1         0.0742
      19    C7      22.134072   17.803714   19.715617 C.3        1 MOL1        -0.2871
      20    H11     23.035890   18.277790   20.124735 H          1 MOL1         0.0754
      21    H12     22.153606   17.923248   18.624555 H          1 MOL1         0.0754
      22    H13     22.179383   16.729903   19.939835 H          1 MOL1         0.0754
@<TRIPOS>BOND
    1     1     2    1
    2     1     3    2
    3     1     4    1
    4     4     5    1
    5     4     6    1
    6     4     7    1
    7     7     8    1
    8     7     9    1
    9     7    10    1
   10    10    11    1
   11    10    12    1
   12    10    13    1
   13    13    14    1
   14    13    15    1
   15    13    16    1
   16    16    17    1
   17    16    18    1
   18    16    19    1
   19    19    20    1
   20    19    21    1
   21    19    22    1
@<TRIPOS>SUBSTRUCTURE
       1 MOL1            1 RESIDUE      1      MOL     
@<SCITEGIC>MOL_PROPERTY
VConf Rank
SciTegic.value.IntegerValue
49

@<SCITEGIC>MOL_PROPERTY
Conf_Id
SciTegic.value.IntegerValue
43

@<SCITEGIC>MOL_PROPERTY
Delta U+W
SciTegic.value.DoubleValue
-0.129

@<SCITEGIC>MOL_PROPERTY
U+W
SciTegic.value.DoubleValue
-53.289

@<SCITEGIC>MOL_PROPERTY
Grad RMS
SciTegic.value.DoubleValue
0.000000

@<SCITEGIC>MOL_PROPERTY
U
SciTegic.value.DoubleValue
7.937

@<SCITEGIC>MOL_PROPERTY
W
SciTegic.value.DoubleValue
-61.225

@<SCITEGIC>MOL_PROPERTY
W(PB)
SciTegic.value.DoubleValue
-63.523

@<SCITEGIC>MOL_PROPERTY
W(SA)
SciTegic.value.DoubleValue
2.297

@<SCITEGIC>MOL_PROPERTY
Valence
SciTegic.value.DoubleValue
7.358

@<SCITEGIC>MOL_PROPERTY
Coulomb
SciTegic.value.DoubleValue
-0.022

@<SCITEGIC>MOL_PROPERTY
VdW
SciTegic.value.DoubleValue
0.601

@<SCITEGIC>MOL_PROPERTY
VdW6
SciTegic.value.DoubleValue
-7.363

@<SCITEGIC>MOL_PROPERTY
VdW12
SciTegic.value.DoubleValue
7.964

@<SCITEGIC>MOL_PROPERTY
Bond
SciTegic.value.DoubleValue
0.121

@<SCITEGIC>MOL_PROPERTY
Angle
SciTegic.value.DoubleValue
2.425

@<SCITEGIC>MOL_PROPERTY
Pdih
SciTegic.value.DoubleValue
4.811

@<SCITEGIC>MOL_PROPERTY
Idih
SciTegic.value.DoubleValue
0.000

@<SCITEGIC>MOL_PROPERTY
Tether
SciTegic.value.DoubleValue
0.000

@<TRIPOS>MOLECULE
guest-s21_confgen4.mol2 : confsearch ligand conformer 50
          22          21           1
SMALL
USER_CHARGES
 
@<TRIPOS>ATOM
       1    C1      20.904211   15.836319   22.646942 C.2        1 MOL1         0.6145
       2    O1      20.492300   15.262798   23.636035 O.co2      1 MOL1        -0.6735
       3    O2      22.080303   16.064132   22.442730 O.co2      1 MOL1        -0.6735
       4    C2      19.888787   16.277388   21.596465 C.3        1 MOL1        -0.1985
       5    H1      19.204883   15.437117   21.428351 H          1 MOL1         0.0740
       6    H2      20.416341   16.451415   20.650789 H          1 MOL1         0.0740
       7    C3      19.074926   17.535837   21.995134 C.3        1 MOL1        -0.1882
       8    H3      18.281950   17.697479   21.252435 H          1 MOL1         0.0742
       9    H4      18.575291   17.356372   22.957325 H          1 MOL1         0.0742
      10    C4      19.951192   18.805053   22.089128 C.3        1 MOL1        -0.1880
      11    H5      20.458536   18.972599   21.129156 H          1 MOL1         0.0742
      12    H6      20.736930   18.657342   22.842922 H          1 MOL1         0.0742
      13    C5      19.116000   20.050531   22.456136 C.3        1 MOL1        -0.1880
      14    H7      18.331310   20.202045   21.702237 H          1 MOL1         0.0742
      15    H8      18.609023   19.882226   23.416218 H          1 MOL1         0.0742
      16    C6      19.990539   21.318302   22.550943 C.3        1 MOL1        -0.1856
      17    H9      20.498055   21.490841   21.591714 H          1 MOL1         0.0742
      18    H10     20.775645   21.171079   23.305554 H          1 MOL1         0.0742
      19    C7      19.153232   22.559829   22.918211 C.3        1 MOL1        -0.2871
      20    H11     18.379327   22.749151   22.162814 H          1 MOL1         0.0754
      21    H12     19.790546   23.451418   22.981332 H          1 MOL1         0.0754
      22    H13     18.659060   22.426966   23.889573 H          1 MOL1         0.0754
@<TRIPOS>BOND
    1     1     2    1
    2     1     3    2
    3     1     4    1
    4     4     5    1
    5     4     6    1
    6     4     7    1
    7     7     8    1
    8     7     9    1
    9     7    10    1
   10    10    11    1
   11    10    12    1
   12    10    13    1
   13    13    14    1
   14    13    15    1
   15    13    16    1
   16    16    17    1
   17    16    18    1
   18    16    19    1
   19    19    20    1
   20    19    21    1
   21    19    22    1
@<TRIPOS>SUBSTRUCTURE
       1 MOL1            1 RESIDUE      1      MOL     
@<SCITEGIC>MOL_PROPERTY
VConf Rank
SciTegic.value.IntegerValue
50

@<SCITEGIC>MOL_PROPERTY
Conf_Id
SciTegic.value.IntegerValue
44

@<SCITEGIC>MOL_PROPERTY
Delta U+W
SciTegic.value.DoubleValue
-0.155

@<SCITEGIC>MOL_PROPERTY
U+W
SciTegic.value.DoubleValue
-53.314

@<SCITEGIC>MOL_PROPERTY
Grad RMS
SciTegic.value.DoubleValue
0.000000

@<SCITEGIC>MOL_PROPERTY
U
SciTegic.value.DoubleValue
7.937

@<SCITEGIC>MOL_PROPERTY
W
SciTegic.value.DoubleValue
-61.252

@<SCITEGIC>MOL_PROPERTY
W(PB)
SciTegic.value.DoubleValue
-63.556

@<SCITEGIC>MOL_PROPERTY
W(SA)
SciTegic.value.DoubleValue
2.304

@<SCITEGIC>MOL_PROPERTY
Valence
SciTegic.value.DoubleValue
7.358

@<SCITEGIC>MOL_PROPERTY
Coulomb
SciTegic.value.DoubleValue
-0.021

@<SCITEGIC>MOL_PROPERTY
VdW
SciTegic.value.DoubleValue
0.600

@<SCITEGIC>MOL_PROPERTY
VdW6
SciTegic.value.DoubleValue
-7.363

@<SCITEGIC>MOL_PROPERTY
VdW12
SciTegic.value.DoubleValue
7.964

@<SCITEGIC>MOL_PROPERTY
Bond
SciTegic.value.DoubleValue
0.121

@<SCITEGIC>MOL_PROPERTY
Angle
SciTegic.value.DoubleValue
2.425

@<SCITEGIC>MOL_PROPERTY
Pdih
SciTegic.value.DoubleValue
4.811

@<SCITEGIC>MOL_PROPERTY
Idih
SciTegic.value.DoubleValue
0.001

@<SCITEGIC>MOL_PROPERTY
Tether
SciTegic.value.DoubleValue
0.000

@<TRIPOS>MOLECULE
guest-s21_confgen4.mol2 : confsearch ligand conformer 51
          22          21           1
SMALL
USER_CHARGES
 
@<TRIPOS>ATOM
       1    C1      16.926716   20.900579   23.332953 C.2        1 MOL1         0.6145
       2    O1      16.973362   21.159970   24.519319 O.co2      1 MOL1        -0.6735
       3    O2      15.952372   20.420909   22.787575 O.co2      1 MOL1        -0.6735
       4    C2      18.153021   21.212839   22.479735 C.3        1 MOL1        -0.1985
       5    H1      18.490223   22.220853   22.748503 H          1 MOL1         0.0740
       6    H2      17.847441   21.250573   21.427079 H          1 MOL1         0.0740
       7    C3      19.322461   20.210436   22.662006 C.3        1 MOL1        -0.1882
       8    H3      20.201158   20.602210   22.134209 H          1 MOL1         0.0742
       9    H4      19.590265   20.153494   23.726168 H          1 MOL1         0.0742
      10    C4      18.981756   18.797502   22.130264 C.3        1 MOL1        -0.1880
      11    H5      18.755355   18.850088   21.056589 H          1 MOL1         0.0742
      12    H6      18.067098   18.438399   22.621627 H          1 MOL1         0.0742
      13    C5      20.103389   17.759931   22.373594 C.3        1 MOL1        -0.1880
      14    H7      20.329613   17.707837   23.447385 H          1 MOL1         0.0742
      15    H8      19.727171   16.768261   22.087321 H          1 MOL1         0.0742
      16    C6      21.397867   18.052098   21.581514 C.3        1 MOL1        -0.1856
      17    H9      21.836287   19.003513   21.909860 H          1 MOL1         0.0742
      18    H10     21.162876   18.158376   20.513488 H          1 MOL1         0.0742
      19    C7      22.439438   16.930333   21.767283 C.3        1 MOL1        -0.2871
      20    H11     22.713301   16.820393   22.824778 H          1 MOL1         0.0754
      21    H12     23.353462   17.153763   21.201860 H          1 MOL1         0.0754
      22    H13     22.048426   15.967797   21.412332 H          1 MOL1         0.0754
@<TRIPOS>BOND
    1     1     2    1
    2     1     3    2
    3     1     4    1
    4     4     5    1
    5     4     6    1
    6     4     7    1
    7     7     8    1
    8     7     9    1
    9     7    10    1
   10    10    11    1
   11    10    12    1
   12    10    13    1
   13    13    14    1
   14    13    15    1
   15    13    16    1
   16    16    17    1
   17    16    18    1
   18    16    19    1
   19    19    20    1
   20    19    21    1
   21    19    22    1
@<TRIPOS>SUBSTRUCTURE
       1 MOL1            1 RESIDUE      1      MOL     
@<SCITEGIC>MOL_PROPERTY
VConf Rank
SciTegic.value.IntegerValue
51

@<SCITEGIC>MOL_PROPERTY
Conf_Id
SciTegic.value.IntegerValue
53

@<SCITEGIC>MOL_PROPERTY
Delta U+W
SciTegic.value.DoubleValue
0.723

@<SCITEGIC>MOL_PROPERTY
U+W
SciTegic.value.DoubleValue
-52.436

@<SCITEGIC>MOL_PROPERTY
Grad RMS
SciTegic.value.DoubleValue
0.000000

@<SCITEGIC>MOL_PROPERTY
U
SciTegic.value.DoubleValue
8.587

@<SCITEGIC>MOL_PROPERTY
W
SciTegic.value.DoubleValue
-61.022

@<SCITEGIC>MOL_PROPERTY
W(PB)
SciTegic.value.DoubleValue
-63.285

@<SCITEGIC>MOL_PROPERTY
W(SA)
SciTegic.value.DoubleValue
2.263

@<SCITEGIC>MOL_PROPERTY
Valence
SciTegic.value.DoubleValue
7.933

@<SCITEGIC>MOL_PROPERTY
Coulomb
SciTegic.value.DoubleValue
-0.124

@<SCITEGIC>MOL_PROPERTY
VdW
SciTegic.value.DoubleValue
0.778

@<SCITEGIC>MOL_PROPERTY
VdW6
SciTegic.value.DoubleValue
-7.981

@<SCITEGIC>MOL_PROPERTY
VdW12
SciTegic.value.DoubleValue
8.759

@<SCITEGIC>MOL_PROPERTY
Bond
SciTegic.value.DoubleValue
0.160

@<SCITEGIC>MOL_PROPERTY
Angle
SciTegic.value.DoubleValue
2.698

@<SCITEGIC>MOL_PROPERTY
Pdih
SciTegic.value.DoubleValue
5.074

@<SCITEGIC>MOL_PROPERTY
Idih
SciTegic.value.DoubleValue
0.001

@<SCITEGIC>MOL_PROPERTY
Tether
SciTegic.value.DoubleValue
0.000

@<TRIPOS>MOLECULE
guest-s21_confgen4.mol2 : confsearch ligand conformer 52
          22          21           1
SMALL
USER_CHARGES
 
@<TRIPOS>ATOM
       1    C1      20.991316   15.931793   21.764069 C.2        1 MOL1         0.6145
       2    O1      21.074614   15.760843   20.563900 O.co2      1 MOL1        -0.6735
       3    O2      21.379689   15.126218   22.586746 O.co2      1 MOL1        -0.6735
       4    C2      20.386663   17.238270   22.265579 C.3        1 MOL1        -0.1985
       5    H1      19.892522   17.039600   23.224034 H          1 MOL1         0.0740
       6    H2      19.613015   17.540907   21.551010 H          1 MOL1         0.0740
       7    C3      21.439522   18.363541   22.428024 C.3        1 MOL1        -0.1882
       8    H3      22.270117   17.982869   23.038451 H          1 MOL1         0.0742
       9    H4      21.866124   18.603810   21.444390 H          1 MOL1         0.0742
      10    C4      20.896662   19.655803   23.088350 C.3        1 MOL1        -0.1880
      11    H5      21.739307   20.353061   23.191914 H          1 MOL1         0.0742
      12    H6      20.558115   19.443241   24.111658 H          1 MOL1         0.0742
      13    C5      19.776588   20.368183   22.288564 C.3        1 MOL1        -0.1880
      14    H7      19.907808   21.453523   22.397246 H          1 MOL1         0.0742
      15    H8      19.883338   20.153547   21.216417 H          1 MOL1         0.0742
      16    C6      18.353118   20.005858   22.771481 C.3        1 MOL1        -0.1856
      17    H9      18.243559   20.279279   23.829985 H          1 MOL1         0.0742
      18    H10     18.187387   18.923772   22.708327 H          1 MOL1         0.0742
      19    C7      17.273594   20.732294   21.944287 C.3        1 MOL1        -0.2871
      20    H11     17.387248   21.821662   22.019740 H          1 MOL1         0.0754
      21    H12     16.269805   20.470546   22.303354 H          1 MOL1         0.0754
      22    H13     17.337876   20.453249   20.884400 H          1 MOL1         0.0754
@<TRIPOS>BOND
    1     1     2    1
    2     1     3    2
    3     1     4    1
    4     4     5    1
    5     4     6    1
    6     4     7    1
    7     7     8    1
    8     7     9    1
    9     7    10    1
   10    10    11    1
   11    10    12    1
   12    10    13    1
   13    13    14    1
   14    13    15    1
   15    13    16    1
   16    16    17    1
   17    16    18    1
   18    16    19    1
   19    19    20    1
   20    19    21    1
   21    19    22    1
@<TRIPOS>SUBSTRUCTURE
       1 MOL1            1 RESIDUE      1      MOL     
@<SCITEGIC>MOL_PROPERTY
VConf Rank
SciTegic.value.IntegerValue
52

@<SCITEGIC>MOL_PROPERTY
Conf_Id
SciTegic.value.IntegerValue
5

@<SCITEGIC>MOL_PROPERTY
Delta U+W
SciTegic.value.DoubleValue
2.167

@<SCITEGIC>MOL_PROPERTY
U+W
SciTegic.value.DoubleValue
-50.993

@<SCITEGIC>MOL_PROPERTY
Grad RMS
SciTegic.value.DoubleValue
0.000000

@<SCITEGIC>MOL_PROPERTY
U
SciTegic.value.DoubleValue
10.045

@<SCITEGIC>MOL_PROPERTY
W
SciTegic.value.DoubleValue
-61.037

@<SCITEGIC>MOL_PROPERTY
W(PB)
SciTegic.value.DoubleValue
-63.303

@<SCITEGIC>MOL_PROPERTY
W(SA)
SciTegic.value.DoubleValue
2.266

@<SCITEGIC>MOL_PROPERTY
Valence
SciTegic.value.DoubleValue
10.100

@<SCITEGIC>MOL_PROPERTY
Coulomb
SciTegic.value.DoubleValue
-0.883

@<SCITEGIC>MOL_PROPERTY
VdW
SciTegic.value.DoubleValue
0.828

@<SCITEGIC>MOL_PROPERTY
VdW6
SciTegic.value.DoubleValue
-8.177

@<SCITEGIC>MOL_PROPERTY
VdW12
SciTegic.value.DoubleValue
9.005

@<SCITEGIC>MOL_PROPERTY
Bond
SciTegic.value.DoubleValue
0.182

@<SCITEGIC>MOL_PROPERTY
Angle
SciTegic.value.DoubleValue
2.988

@<SCITEGIC>MOL_PROPERTY
Pdih
SciTegic.value.DoubleValue
6.930

@<SCITEGIC>MOL_PROPERTY
Idih
SciTegic.value.DoubleValue
0.001

@<SCITEGIC>MOL_PROPERTY
Tether
SciTegic.value.DoubleValue
0.000

@<TRIPOS>MOLECULE
guest-s21_confgen4.mol2 : confsearch ligand conformer 53
          22          21           1
SMALL
USER_CHARGES
 
@<TRIPOS>ATOM
       1    C1      19.812584   15.821824   21.050556 C.2        1 MOL1         0.6145
       2    O1      19.814842   15.903404   19.838158 O.co2      1 MOL1        -0.6735
       3    O2      19.720670   14.770989   21.653782 O.co2      1 MOL1        -0.6735
       4    C2      19.907287   17.110391   21.859647 C.3        1 MOL1        -0.1985
       5    H1      20.535461   17.809621   21.296437 H          1 MOL1         0.0740
       6    H2      20.423819   16.885267   22.800282 H          1 MOL1         0.0740
       7    C3      18.521775   17.742244   22.146458 C.3        1 MOL1        -0.1882
       8    H3      18.054117   18.034070   21.195990 H          1 MOL1         0.0742
       9    H4      17.869671   16.975370   22.587011 H          1 MOL1         0.0742
      10    C4      18.561097   18.961446   23.101797 C.3        1 MOL1        -0.1880
      11    H5      18.935917   18.656029   24.088298 H          1 MOL1         0.0742
      12    H6      17.524621   19.287313   23.264507 H          1 MOL1         0.0742
      13    C5      19.369659   20.172175   22.570691 C.3        1 MOL1        -0.1880
      14    H7      19.363542   20.177540   21.472103 H          1 MOL1         0.0742
      15    H8      18.861051   21.094418   22.883389 H          1 MOL1         0.0742
      16    C6      20.821029   20.220529   23.101676 C.3        1 MOL1        -0.1856
      17    H9      21.360005   19.302946   22.837269 H          1 MOL1         0.0742
      18    H10     20.809188   20.272853   24.199090 H          1 MOL1         0.0742
      19    C7      21.587155   21.436312   22.542877 C.3        1 MOL1        -0.2871
      20    H11     21.643466   21.394561   21.447229 H          1 MOL1         0.0754
      21    H12     22.612480   21.460662   22.934221 H          1 MOL1         0.0754
      22    H13     21.094035   22.375612   22.825508 H          1 MOL1         0.0754
@<TRIPOS>BOND
    1     1     2    1
    2     1     3    2
    3     1     4    1
    4     4     5    1
    5     4     6    1
    6     4     7    1
    7     7     8    1
    8     7     9    1
    9     7    10    1
   10    10    11    1
   11    10    12    1
   12    10    13    1
   13    13    14    1
   14    13    15    1
   15    13    16    1
   16    16    17    1
   17    16    18    1
   18    16    19    1
   19    19    20    1
   20    19    21    1
   21    19    22    1
@<TRIPOS>SUBSTRUCTURE
       1 MOL1            1 RESIDUE      1      MOL     
@<SCITEGIC>MOL_PROPERTY
VConf Rank
SciTegic.value.IntegerValue
53

@<SCITEGIC>MOL_PROPERTY
Conf_Id
SciTegic.value.IntegerValue
6

@<SCITEGIC>MOL_PROPERTY
Delta U+W
SciTegic.value.DoubleValue
2.118

@<SCITEGIC>MOL_PROPERTY
U+W
SciTegic.value.DoubleValue
-51.042

@<SCITEGIC>MOL_PROPERTY
Grad RMS
SciTegic.value.DoubleValue
0.000000

@<SCITEGIC>MOL_PROPERTY
U
SciTegic.value.DoubleValue
10.045

@<SCITEGIC>MOL_PROPERTY
W
SciTegic.value.DoubleValue
-61.086

@<SCITEGIC>MOL_PROPERTY
W(PB)
SciTegic.value.DoubleValue
-63.356

@<SCITEGIC>MOL_PROPERTY
W(SA)
SciTegic.value.DoubleValue
2.270

@<SCITEGIC>MOL_PROPERTY
Valence
SciTegic.value.DoubleValue
10.100

@<SCITEGIC>MOL_PROPERTY
Coulomb
SciTegic.value.DoubleValue
-0.883

@<SCITEGIC>MOL_PROPERTY
VdW
SciTegic.value.DoubleValue
0.828

@<SCITEGIC>MOL_PROPERTY
VdW6
SciTegic.value.DoubleValue
-8.177

@<SCITEGIC>MOL_PROPERTY
VdW12
SciTegic.value.DoubleValue
9.004

@<SCITEGIC>MOL_PROPERTY
Bond
SciTegic.value.DoubleValue
0.182

@<SCITEGIC>MOL_PROPERTY
Angle
SciTegic.value.DoubleValue
2.988

@<SCITEGIC>MOL_PROPERTY
Pdih
SciTegic.value.DoubleValue
6.930

@<SCITEGIC>MOL_PROPERTY
Idih
SciTegic.value.DoubleValue
0.001

@<SCITEGIC>MOL_PROPERTY
Tether
SciTegic.value.DoubleValue
0.000

@<TRIPOS>MOLECULE
guest-s21_confgen4.mol2 : confsearch ligand conformer 54
          22          21           1
SMALL
USER_CHARGES
 
@<TRIPOS>ATOM
       1    C1      21.545812   20.544304   21.489682 C.2        1 MOL1         0.6145
       2    O1      21.282018   21.687916   21.806003 O.co2      1 MOL1        -0.6735
       3    O2      21.426017   20.117302   20.358146 O.co2      1 MOL1        -0.6735
       4    C2      22.125250   19.613100   22.552962 C.3        1 MOL1        -0.1985
       5    H1      23.083120   20.050861   22.856908 H          1 MOL1         0.0740
       6    H2      22.355074   18.644809   22.092054 H          1 MOL1         0.0740
       7    C3      21.238404   19.412218   23.814006 C.3        1 MOL1        -0.1882
       8    H3      21.882815   19.052988   24.627707 H          1 MOL1         0.0742
       9    H4      20.839456   20.379634   24.149444 H          1 MOL1         0.0742
      10    C4      20.084938   18.393103   23.641282 C.3        1 MOL1        -0.1880
      11    H5      19.631812   18.219513   24.626938 H          1 MOL1         0.0742
      12    H6      20.491596   17.426464   23.314067 H          1 MOL1         0.0742
      13    C5      18.980998   18.850742   22.661287 C.3        1 MOL1        -0.1880
      14    H7      18.646206   19.862376   22.928789 H          1 MOL1         0.0742
      15    H8      19.385389   18.904857   21.642659 H          1 MOL1         0.0742
      16    C6      17.775072   17.887619   22.670332 C.3        1 MOL1        -0.1856
      17    H9      17.353419   17.829918   23.683365 H          1 MOL1         0.0742
      18    H10     18.108678   16.874925   22.404678 H          1 MOL1         0.0742
      19    C7      16.678953   18.341013   21.685256 C.3        1 MOL1        -0.2871
      20    H11     16.304956   19.339577   21.946722 H          1 MOL1         0.0754
      21    H12     15.830092   17.645221   21.703482 H          1 MOL1         0.0754
      22    H13     17.065407   18.378068   20.658230 H          1 MOL1         0.0754
@<TRIPOS>BOND
    1     1     2    1
    2     1     3    2
    3     1     4    1
    4     4     5    1
    5     4     6    1
    6     4     7    1
    7     7     8    1
    8     7     9    1
    9     7    10    1
   10    10    11    1
   11    10    12    1
   12    10    13    1
   13    13    14    1
   14    13    15    1
   15    13    16    1
   16    16    17    1
   17    16    18    1
   18    16    19    1
   19    19    20    1
   20    19    21    1
   21    19    22    1
@<TRIPOS>SUBSTRUCTURE
       1 MOL1            1 RESIDUE      1      MOL     
@<SCITEGIC>MOL_PROPERTY
VConf Rank
SciTegic.value.IntegerValue
54

@<SCITEGIC>MOL_PROPERTY
Conf_Id
SciTegic.value.IntegerValue
8

@<SCITEGIC>MOL_PROPERTY
Delta U+W
SciTegic.value.DoubleValue
1.886

@<SCITEGIC>MOL_PROPERTY
U+W
SciTegic.value.DoubleValue
-51.274

@<SCITEGIC>MOL_PROPERTY
Grad RMS
SciTegic.value.DoubleValue
0.000000

@<SCITEGIC>MOL_PROPERTY
U
SciTegic.value.DoubleValue
11.237

@<SCITEGIC>MOL_PROPERTY
W
SciTegic.value.DoubleValue
-62.510

@<SCITEGIC>MOL_PROPERTY
W(PB)
SciTegic.value.DoubleValue
-64.777

@<SCITEGIC>MOL_PROPERTY
W(SA)
SciTegic.value.DoubleValue
2.267

@<SCITEGIC>MOL_PROPERTY
Valence
SciTegic.value.DoubleValue
9.029

@<SCITEGIC>MOL_PROPERTY
Coulomb
SciTegic.value.DoubleValue
1.667

@<SCITEGIC>MOL_PROPERTY
VdW
SciTegic.value.DoubleValue
0.540

@<SCITEGIC>MOL_PROPERTY
VdW6
SciTegic.value.DoubleValue
-8.825

@<SCITEGIC>MOL_PROPERTY
VdW12
SciTegic.value.DoubleValue
9.365

@<SCITEGIC>MOL_PROPERTY
Bond
SciTegic.value.DoubleValue
0.186

@<SCITEGIC>MOL_PROPERTY
Angle
SciTegic.value.DoubleValue
3.195

@<SCITEGIC>MOL_PROPERTY
Pdih
SciTegic.value.DoubleValue
5.642

@<SCITEGIC>MOL_PROPERTY
Idih
SciTegic.value.DoubleValue
0.007

@<SCITEGIC>MOL_PROPERTY
Tether
SciTegic.value.DoubleValue
0.000

@<TRIPOS>MOLECULE
guest-s21_confgen4.mol2 : confsearch ligand conformer 55
          22          21           1
SMALL
USER_CHARGES
 
@<TRIPOS>ATOM
       1    C1      19.060648   21.171556   24.501419 C.2        1 MOL1         0.6145
       2    O1      18.121729   20.518895   24.912794 O.co2      1 MOL1        -0.6735
       3    O2      18.995385   22.359238   24.251501 O.co2      1 MOL1        -0.6735
       4    C2      20.403592   20.470565   24.316279 C.3        1 MOL1        -0.1985
       5    H1      20.371979   19.507152   24.837378 H          1 MOL1         0.0740
       6    H2      21.159709   21.075124   24.830594 H          1 MOL1         0.0740
       7    C3      20.822080   20.280228   22.832438 C.3        1 MOL1        -0.1882
       8    H3      20.920187   21.270316   22.366145 H          1 MOL1         0.0742
       9    H4      21.820035   19.823034   22.795152 H          1 MOL1         0.0742
      10    C4      19.840021   19.429615   21.989379 C.3        1 MOL1        -0.1880
      11    H5      20.186886   19.444869   20.948492 H          1 MOL1         0.0742
      12    H6      18.846616   19.898725   21.991719 H          1 MOL1         0.0742
      13    C5      19.722874   17.963371   22.472958 C.3        1 MOL1        -0.1880
      14    H7      20.717037   17.496667   22.490827 H          1 MOL1         0.0742
      15    H8      19.351651   17.951171   23.505904 H          1 MOL1         0.0742
      16    C6      18.764172   17.107585   21.612422 C.3        1 MOL1        -0.1856
      17    H9      17.772910   17.580598   21.580260 H          1 MOL1         0.0742
      18    H10     18.627004   16.133937   22.102698 H          1 MOL1         0.0742
      19    C7      19.275279   16.869637   20.174729 C.3        1 MOL1        -0.2871
      20    H11     19.313280   17.804314   19.601768 H          1 MOL1         0.0754
      21    H12     18.608806   16.180403   19.640250 H          1 MOL1         0.0754
      22    H13     20.280625   16.428831   20.183032 H          1 MOL1         0.0754
@<TRIPOS>BOND
    1     1     2    1
    2     1     3    2
    3     1     4    1
    4     4     5    1
    5     4     6    1
    6     4     7    1
    7     7     8    1
    8     7     9    1
    9     7    10    1
   10    10    11    1
   11    10    12    1
   12    10    13    1
   13    13    14    1
   14    13    15    1
   15    13    16    1
   16    16    17    1
   17    16    18    1
   18    16    19    1
   19    19    20    1
   20    19    21    1
   21    19    22    1
@<TRIPOS>SUBSTRUCTURE
       1 MOL1            1 RESIDUE      1      MOL     
@<SCITEGIC>MOL_PROPERTY
VConf Rank
SciTegic.value.IntegerValue
55

@<SCITEGIC>MOL_PROPERTY
Conf_Id
SciTegic.value.IntegerValue
93

@<SCITEGIC>MOL_PROPERTY
Delta U+W
SciTegic.value.DoubleValue
1.836

@<SCITEGIC>MOL_PROPERTY
U+W
SciTegic.value.DoubleValue
-51.323

@<SCITEGIC>MOL_PROPERTY
Grad RMS
SciTegic.value.DoubleValue
0.000000

@<SCITEGIC>MOL_PROPERTY
U
SciTegic.value.DoubleValue
10.427

@<SCITEGIC>MOL_PROPERTY
W
SciTegic.value.DoubleValue
-61.751

@<SCITEGIC>MOL_PROPERTY
W(PB)
SciTegic.value.DoubleValue
-63.980

@<SCITEGIC>MOL_PROPERTY
W(SA)
SciTegic.value.DoubleValue
2.230

@<SCITEGIC>MOL_PROPERTY
Valence
SciTegic.value.DoubleValue
8.446

@<SCITEGIC>MOL_PROPERTY
Coulomb
SciTegic.value.DoubleValue
1.306

@<SCITEGIC>MOL_PROPERTY
VdW
SciTegic.value.DoubleValue
0.676

@<SCITEGIC>MOL_PROPERTY
VdW6
SciTegic.value.DoubleValue
-8.928

@<SCITEGIC>MOL_PROPERTY
VdW12
SciTegic.value.DoubleValue
9.604

@<SCITEGIC>MOL_PROPERTY
Bond
SciTegic.value.DoubleValue
0.209

@<SCITEGIC>MOL_PROPERTY
Angle
SciTegic.value.DoubleValue
3.066

@<SCITEGIC>MOL_PROPERTY
Pdih
SciTegic.value.DoubleValue
5.170

@<SCITEGIC>MOL_PROPERTY
Idih
SciTegic.value.DoubleValue
0.001

@<SCITEGIC>MOL_PROPERTY
Tether
SciTegic.value.DoubleValue
0.000

@<TRIPOS>MOLECULE
guest-s21_confgen4.mol2 : confsearch ligand conformer 56
          22          21           1
SMALL
USER_CHARGES
 
@<TRIPOS>ATOM
       1    C1      20.853595   18.141584   19.747604 C.2        1 MOL1         0.6145
       2    O1      20.684633   18.686061   18.674151 O.co2      1 MOL1        -0.6735
       3    O2      20.464448   17.018347   19.999933 O.co2      1 MOL1        -0.6735
       4    C2      21.622763   18.900326   20.825498 C.3        1 MOL1        -0.1985
       5    H1      22.545806   19.272148   20.365648 H          1 MOL1         0.0740
       6    H2      21.929090   18.191834   21.603259 H          1 MOL1         0.0740
       7    C3      20.841841   20.092470   21.443644 C.3        1 MOL1        -0.1882
       8    H3      21.488204   20.612278   22.163606 H          1 MOL1         0.0742
       9    H4      20.622473   20.818006   20.648156 H          1 MOL1         0.0742
      10    C4      19.514352   19.702422   22.139607 C.3        1 MOL1        -0.1880
      11    H5      18.846613   19.213179   21.417326 H          1 MOL1         0.0742
      12    H6      19.010708   20.626633   22.449725 H          1 MOL1         0.0742
      13    C5      19.710492   18.783523   23.370297 C.3        1 MOL1        -0.1880
      14    H7      20.191571   17.849598   23.052048 H          1 MOL1         0.0742
      15    H8      20.393402   19.260676   24.086155 H          1 MOL1         0.0742
      16    C6      18.386500   18.418655   24.081570 C.3        1 MOL1        -0.1856
      17    H9      18.596578   17.657069   24.845133 H          1 MOL1         0.0742
      18    H10     17.695619   17.955252   23.363711 H          1 MOL1         0.0742
      19    C7      17.701177   19.624245   24.761051 C.3        1 MOL1        -0.2871
      20    H11     17.361047   20.361524   24.023434 H          1 MOL1         0.0754
      21    H12     18.386284   20.124165   25.458050 H          1 MOL1         0.0754
      22    H13     16.821987   19.294817   25.329734 H          1 MOL1         0.0754
@<TRIPOS>BOND
    1     1     2    1
    2     1     3    2
    3     1     4    1
    4     4     5    1
    5     4     6    1
    6     4     7    1
    7     7     8    1
    8     7     9    1
    9     7    10    1
   10    10    11    1
   11    10    12    1
   12    10    13    1
   13    13    14    1
   14    13    15    1
   15    13    16    1
   16    16    17    1
   17    16    18    1
   18    16    19    1
   19    19    20    1
   20    19    21    1
   21    19    22    1
@<TRIPOS>SUBSTRUCTURE
       1 MOL1            1 RESIDUE      1      MOL     
@<SCITEGIC>MOL_PROPERTY
VConf Rank
SciTegic.value.IntegerValue
56

@<SCITEGIC>MOL_PROPERTY
Conf_Id
SciTegic.value.IntegerValue
70

@<SCITEGIC>MOL_PROPERTY
Delta U+W
SciTegic.value.DoubleValue
1.803

@<SCITEGIC>MOL_PROPERTY
U+W
SciTegic.value.DoubleValue
-51.356

@<SCITEGIC>MOL_PROPERTY
Grad RMS
SciTegic.value.DoubleValue
0.000000

@<SCITEGIC>MOL_PROPERTY
U
SciTegic.value.DoubleValue
10.428

@<SCITEGIC>MOL_PROPERTY
W
SciTegic.value.DoubleValue
-61.784

@<SCITEGIC>MOL_PROPERTY
W(PB)
SciTegic.value.DoubleValue
-64.014

@<SCITEGIC>MOL_PROPERTY
W(SA)
SciTegic.value.DoubleValue
2.230

@<SCITEGIC>MOL_PROPERTY
Valence
SciTegic.value.DoubleValue
8.445

@<SCITEGIC>MOL_PROPERTY
Coulomb
SciTegic.value.DoubleValue
1.306

@<SCITEGIC>MOL_PROPERTY
VdW
SciTegic.value.DoubleValue
0.676

@<SCITEGIC>MOL_PROPERTY
VdW6
SciTegic.value.DoubleValue
-8.929

@<SCITEGIC>MOL_PROPERTY
VdW12
SciTegic.value.DoubleValue
9.605

@<SCITEGIC>MOL_PROPERTY
Bond
SciTegic.value.DoubleValue
0.209

@<SCITEGIC>MOL_PROPERTY
Angle
SciTegic.value.DoubleValue
3.066

@<SCITEGIC>MOL_PROPERTY
Pdih
SciTegic.value.DoubleValue
5.170

@<SCITEGIC>MOL_PROPERTY
Idih
SciTegic.value.DoubleValue
0.001

@<SCITEGIC>MOL_PROPERTY
Tether
SciTegic.value.DoubleValue
0.000

@<TRIPOS>MOLECULE
guest-s21_confgen4.mol2 : confsearch ligand conformer 57
          22          21           1
SMALL
USER_CHARGES
 
@<TRIPOS>ATOM
       1    C1      21.522718   16.338053   23.108379 C.2        1 MOL1         0.6145
       2    O1      22.016370   16.029138   22.041706 O.co2      1 MOL1        -0.6735
       3    O2      20.847678   15.583466   23.780538 O.co2      1 MOL1        -0.6735
       4    C2      21.783566   17.744234   23.641024 C.3        1 MOL1        -0.1985
       5    H1      22.850933   17.954358   23.504586 H          1 MOL1         0.0740
       6    H2      21.594646   17.750058   24.721355 H          1 MOL1         0.0740
       7    C3      20.945324   18.847090   22.943857 C.3        1 MOL1        -0.1882
       8    H3      21.288480   19.830267   23.292961 H          1 MOL1         0.0742
       9    H4      21.136249   18.808910   21.863246 H          1 MOL1         0.0742
      10    C4      19.430240   18.705405   23.224942 C.3        1 MOL1        -0.1880
      11    H5      19.271707   18.657919   24.310968 H          1 MOL1         0.0742
      12    H6      19.062349   17.753798   22.817015 H          1 MOL1         0.0742
      13    C5      18.586461   19.870563   22.655755 C.3        1 MOL1        -0.1880
      14    H7      17.551411   19.753405   23.004802 H          1 MOL1         0.0742
      15    H8      18.947377   20.822640   23.068253 H          1 MOL1         0.0742
      16    C6      18.590529   19.936530   21.111799 C.3        1 MOL1        -0.1856
      17    H9      18.280107   18.966829   20.698776 H          1 MOL1         0.0742
      18    H10     19.606559   20.130995   20.744068 H          1 MOL1         0.0742
      19    C7      17.648675   21.040560   20.590493 C.3        1 MOL1        -0.2871
      20    H11     16.613824   20.856882   20.907822 H          1 MOL1         0.0754
      21    H12     17.665125   21.076704   19.493459 H          1 MOL1         0.0754
      22    H13     17.953124   22.025993   20.966800 H          1 MOL1         0.0754
@<TRIPOS>BOND
    1     1     2    1
    2     1     3    2
    3     1     4    1
    4     4     5    1
    5     4     6    1
    6     4     7    1
    7     7     8    1
    8     7     9    1
    9     7    10    1
   10    10    11    1
   11    10    12    1
   12    10    13    1
   13    13    14    1
   14    13    15    1
   15    13    16    1
   16    16    17    1
   17    16    18    1
   18    16    19    1
   19    19    20    1
   20    19    21    1
   21    19    22    1
@<TRIPOS>SUBSTRUCTURE
       1 MOL1            1 RESIDUE      1      MOL     
@<SCITEGIC>MOL_PROPERTY
VConf Rank
SciTegic.value.IntegerValue
57

@<SCITEGIC>MOL_PROPERTY
Conf_Id
SciTegic.value.IntegerValue
85

@<SCITEGIC>MOL_PROPERTY
Delta U+W
SciTegic.value.DoubleValue
0.707

@<SCITEGIC>MOL_PROPERTY
U+W
SciTegic.value.DoubleValue
-52.452

@<SCITEGIC>MOL_PROPERTY
Grad RMS
SciTegic.value.DoubleValue
0.000000

@<SCITEGIC>MOL_PROPERTY
U
SciTegic.value.DoubleValue
8.925

@<SCITEGIC>MOL_PROPERTY
W
SciTegic.value.DoubleValue
-61.378

@<SCITEGIC>MOL_PROPERTY
W(PB)
SciTegic.value.DoubleValue
-63.661

@<SCITEGIC>MOL_PROPERTY
W(SA)
SciTegic.value.DoubleValue
2.283

@<SCITEGIC>MOL_PROPERTY
Valence
SciTegic.value.DoubleValue
7.881

@<SCITEGIC>MOL_PROPERTY
Coulomb
SciTegic.value.DoubleValue
0.349

@<SCITEGIC>MOL_PROPERTY
VdW
SciTegic.value.DoubleValue
0.695

@<SCITEGIC>MOL_PROPERTY
VdW6
SciTegic.value.DoubleValue
-8.049

@<SCITEGIC>MOL_PROPERTY
VdW12
SciTegic.value.DoubleValue
8.743

@<SCITEGIC>MOL_PROPERTY
Bond
SciTegic.value.DoubleValue
0.156

@<SCITEGIC>MOL_PROPERTY
Angle
SciTegic.value.DoubleValue
2.660

@<SCITEGIC>MOL_PROPERTY
Pdih
SciTegic.value.DoubleValue
5.064

@<SCITEGIC>MOL_PROPERTY
Idih
SciTegic.value.DoubleValue
0.001

@<SCITEGIC>MOL_PROPERTY
Tether
SciTegic.value.DoubleValue
0.000

@<TRIPOS>MOLECULE
guest-s21_confgen4.mol2 : confsearch ligand conformer 58
          22          21           1
SMALL
USER_CHARGES
 
@<TRIPOS>ATOM
       1    C1      22.439535   20.764252   23.349486 C.2        1 MOL1         0.6145
       2    O1      22.813013   21.523609   22.477229 O.co2      1 MOL1        -0.6735
       3    O2      22.251460   21.104008   24.501079 O.co2      1 MOL1        -0.6735
       4    C2      22.216260   19.298789   22.986220 C.3        1 MOL1        -0.1985
       5    H1      22.697833   18.692798   23.762656 H          1 MOL1         0.0740
       6    H2      22.740764   19.086210   22.046773 H          1 MOL1         0.0740
       7    C3      20.722997   18.896261   22.868641 C.3        1 MOL1        -0.1882
       8    H3      20.666553   17.805581   22.763106 H          1 MOL1         0.0742
       9    H4      20.199978   19.157863   23.798852 H          1 MOL1         0.0742
      10    C4      20.019858   19.563461   21.663850 C.3        1 MOL1        -0.1880
      11    H5      20.495905   19.228432   20.732273 H          1 MOL1         0.0742
      12    H6      20.173557   20.650114   21.712870 H          1 MOL1         0.0742
      13    C5      18.495597   19.296041   21.588752 C.3        1 MOL1        -0.1880
      14    H7      17.996498   19.711048   22.475091 H          1 MOL1         0.0742
      15    H8      18.103271   19.862694   20.733268 H          1 MOL1         0.0742
      16    C6      18.105915   17.808566   21.400421 C.3        1 MOL1        -0.1856
      17    H9      18.908598   17.266906   20.881273 H          1 MOL1         0.0742
      18    H10     17.227499   17.756389   20.742423 H          1 MOL1         0.0742
      19    C7      17.751120   17.099447   22.726430 C.3        1 MOL1        -0.2871
      20    H11     18.592571   17.101094   23.428470 H          1 MOL1         0.0754
      21    H12     17.472093   16.054344   22.540092 H          1 MOL1         0.0754
      22    H13     16.900845   17.591441   23.216391 H          1 MOL1         0.0754
@<TRIPOS>BOND
    1     1     2    1
    2     1     3    2
    3     1     4    1
    4     4     5    1
    5     4     6    1
    6     4     7    1
    7     7     8    1
    8     7     9    1
    9     7    10    1
   10    10    11    1
   11    10    12    1
   12    10    13    1
   13    13    14    1
   14    13    15    1
   15    13    16    1
   16    16    17    1
   17    16    18    1
   18    16    19    1
   19    19    20    1
   20    19    21    1
   21    19    22    1
@<TRIPOS>SUBSTRUCTURE
       1 MOL1            1 RESIDUE      1      MOL     
@<SCITEGIC>MOL_PROPERTY
VConf Rank
SciTegic.value.IntegerValue
58

@<SCITEGIC>MOL_PROPERTY
Conf_Id
SciTegic.value.IntegerValue
82

@<SCITEGIC>MOL_PROPERTY
Delta U+W
SciTegic.value.DoubleValue
3.438

@<SCITEGIC>MOL_PROPERTY
U+W
SciTegic.value.DoubleValue
-49.721

@<SCITEGIC>MOL_PROPERTY
Grad RMS
SciTegic.value.DoubleValue
0.000000

@<SCITEGIC>MOL_PROPERTY
U
SciTegic.value.DoubleValue
11.773

@<SCITEGIC>MOL_PROPERTY
W
SciTegic.value.DoubleValue
-61.495

@<SCITEGIC>MOL_PROPERTY
W(PB)
SciTegic.value.DoubleValue
-63.749

@<SCITEGIC>MOL_PROPERTY
W(SA)
SciTegic.value.DoubleValue
2.254

@<SCITEGIC>MOL_PROPERTY
Valence
SciTegic.value.DoubleValue
10.419

@<SCITEGIC>MOL_PROPERTY
Coulomb
SciTegic.value.DoubleValue
0.565

@<SCITEGIC>MOL_PROPERTY
VdW
SciTegic.value.DoubleValue
0.789

@<SCITEGIC>MOL_PROPERTY
VdW6
SciTegic.value.DoubleValue
-8.847

@<SCITEGIC>MOL_PROPERTY
VdW12
SciTegic.value.DoubleValue
9.636

@<SCITEGIC>MOL_PROPERTY
Bond
SciTegic.value.DoubleValue
0.200

@<SCITEGIC>MOL_PROPERTY
Angle
SciTegic.value.DoubleValue
3.187

@<SCITEGIC>MOL_PROPERTY
Pdih
SciTegic.value.DoubleValue
7.032

@<SCITEGIC>MOL_PROPERTY
Idih
SciTegic.value.DoubleValue
0.001

@<SCITEGIC>MOL_PROPERTY
Tether
SciTegic.value.DoubleValue
0.000

@<TRIPOS>MOLECULE
guest-s21_confgen4.mol2 : confsearch ligand conformer 59
          22          21           1
SMALL
USER_CHARGES
 
@<TRIPOS>ATOM
       1    C1      22.265456   20.787009   23.833314 C.2        1 MOL1         0.6145
       2    O1      21.714792   21.717140   24.388829 O.co2      1 MOL1        -0.6735
       3    O2      23.144484   20.122915   24.346372 O.co2      1 MOL1        -0.6735
       4    C2      21.844817   20.451022   22.405177 C.3        1 MOL1        -0.1985
       5    H1      22.635336   19.850963   21.938417 H          1 MOL1         0.0740
       6    H2      21.792755   21.394665   21.849461 H          1 MOL1         0.0740
       7    C3      20.483197   19.715345   22.302893 C.3        1 MOL1        -0.1882
       8    H3      19.710290   20.304845   22.815124 H          1 MOL1         0.0742
       9    H4      20.198509   19.661176   21.244628 H          1 MOL1         0.0742
      10    C4      20.532834   18.286778   22.892651 C.3        1 MOL1        -0.1880
      11    H5      20.924822   18.333119   23.917853 H          1 MOL1         0.0742
      12    H6      21.246434   17.679865   22.318953 H          1 MOL1         0.0742
      13    C5      19.161161   17.567526   22.934070 C.3        1 MOL1        -0.1880
      14    H7      19.313767   16.594447   23.420583 H          1 MOL1         0.0742
      15    H8      18.466390   18.118969   23.582244 H          1 MOL1         0.0742
      16    C6      18.517412   17.316818   21.547480 C.3        1 MOL1        -0.1856
      17    H9      18.005355   16.344890   21.568739 H          1 MOL1         0.0742
      18    H10     19.294791   17.235285   20.775310 H          1 MOL1         0.0742
      19    C7      17.481276   18.393069   21.153611 C.3        1 MOL1        -0.2871
      20    H11     16.661525   18.430517   21.882783 H          1 MOL1         0.0754
      21    H12     17.046589   18.166189   20.171576 H          1 MOL1         0.0754
      22    H13     17.929975   19.391330   21.098419 H          1 MOL1         0.0754
@<TRIPOS>BOND
    1     1     2    1
    2     1     3    2
    3     1     4    1
    4     4     5    1
    5     4     6    1
    6     4     7    1
    7     7     8    1
    8     7     9    1
    9     7    10    1
   10    10    11    1
   11    10    12    1
   12    10    13    1
   13    13    14    1
   14    13    15    1
   15    13    16    1
   16    16    17    1
   17    16    18    1
   18    16    19    1
   19    19    20    1
   20    19    21    1
   21    19    22    1
@<TRIPOS>SUBSTRUCTURE
       1 MOL1            1 RESIDUE      1      MOL     
@<SCITEGIC>MOL_PROPERTY
VConf Rank
SciTegic.value.IntegerValue
59

@<SCITEGIC>MOL_PROPERTY
Conf_Id
SciTegic.value.IntegerValue
94

@<SCITEGIC>MOL_PROPERTY
Delta U+W
SciTegic.value.DoubleValue
3.471

@<SCITEGIC>MOL_PROPERTY
U+W
SciTegic.value.DoubleValue
-49.688

@<SCITEGIC>MOL_PROPERTY
Grad RMS
SciTegic.value.DoubleValue
0.000000

@<SCITEGIC>MOL_PROPERTY
U
SciTegic.value.DoubleValue
11.773

@<SCITEGIC>MOL_PROPERTY
W
SciTegic.value.DoubleValue
-61.461

@<SCITEGIC>MOL_PROPERTY
W(PB)
SciTegic.value.DoubleValue
-63.710

@<SCITEGIC>MOL_PROPERTY
W(SA)
SciTegic.value.DoubleValue
2.248

@<SCITEGIC>MOL_PROPERTY
Valence
SciTegic.value.DoubleValue
10.419

@<SCITEGIC>MOL_PROPERTY
Coulomb
SciTegic.value.DoubleValue
0.566

@<SCITEGIC>MOL_PROPERTY
VdW
SciTegic.value.DoubleValue
0.789

@<SCITEGIC>MOL_PROPERTY
VdW6
SciTegic.value.DoubleValue
-8.847

@<SCITEGIC>MOL_PROPERTY
VdW12
SciTegic.value.DoubleValue
9.636

@<SCITEGIC>MOL_PROPERTY
Bond
SciTegic.value.DoubleValue
0.200

@<SCITEGIC>MOL_PROPERTY
Angle
SciTegic.value.DoubleValue
3.187

@<SCITEGIC>MOL_PROPERTY
Pdih
SciTegic.value.DoubleValue
7.032

@<SCITEGIC>MOL_PROPERTY
Idih
SciTegic.value.DoubleValue
0.001

@<SCITEGIC>MOL_PROPERTY
Tether
SciTegic.value.DoubleValue
0.000

@<TRIPOS>MOLECULE
guest-s21_confgen4.mol2 : confsearch ligand conformer 60
          22          21           1
SMALL
USER_CHARGES
 
@<TRIPOS>ATOM
       1    C1      17.019848   18.845046   20.588320 C.2        1 MOL1         0.6145
       2    O1      15.847107   18.881714   20.904598 O.co2      1 MOL1        -0.6735
       3    O2      17.438429   18.229913   19.627603 O.co2      1 MOL1        -0.6735
       4    C2      18.023120   19.596453   21.455941 C.3        1 MOL1        -0.1985
       5    H1      17.525219   20.485302   21.861249 H          1 MOL1         0.0740
       6    H2      18.832599   19.944888   20.804505 H          1 MOL1         0.0740
       7    C3      18.588625   18.727543   22.609048 C.3        1 MOL1        -0.1882
       8    H3      17.749043   18.327101   23.193725 H          1 MOL1         0.0742
       9    H4      19.110308   17.856375   22.191030 H          1 MOL1         0.0742
      10    C4      19.529593   19.504097   23.564013 C.3        1 MOL1        -0.1880
      11    H5      19.841794   18.834962   24.376578 H          1 MOL1         0.0742
      12    H6      18.959269   20.309966   24.045522 H          1 MOL1         0.0742
      13    C5      20.787426   20.119304   22.895774 C.3        1 MOL1        -0.1880
      14    H7      20.478986   20.908024   22.197178 H          1 MOL1         0.0742
      15    H8      21.382486   20.624322   23.668695 H          1 MOL1         0.0742
      16    C6      21.694848   19.112500   22.146869 C.3        1 MOL1        -0.1856
      17    H9      22.531753   19.663302   21.696186 H          1 MOL1         0.0742
      18    H10     21.145937   18.657303   21.311707 H          1 MOL1         0.0742
      19    C7      22.263309   18.006323   23.061762 C.3        1 MOL1        -0.2871
      20    H11     22.802916   18.440033   23.913627 H          1 MOL1         0.0754
      21    H12     22.963523   17.369797   22.505633 H          1 MOL1         0.0754
      22    H13     21.465026   17.362098   23.451216 H          1 MOL1         0.0754
@<TRIPOS>BOND
    1     1     2    1
    2     1     3    2
    3     1     4    1
    4     4     5    1
    5     4     6    1
    6     4     7    1
    7     7     8    1
    8     7     9    1
    9     7    10    1
   10    10    11    1
   11    10    12    1
   12    10    13    1
   13    13    14    1
   14    13    15    1
   15    13    16    1
   16    16    17    1
   17    16    18    1
   18    16    19    1
   19    19    20    1
   20    19    21    1
   21    19    22    1
@<TRIPOS>SUBSTRUCTURE
       1 MOL1            1 RESIDUE      1      MOL     
@<SCITEGIC>MOL_PROPERTY
VConf Rank
SciTegic.value.IntegerValue
60

@<SCITEGIC>MOL_PROPERTY
Conf_Id
SciTegic.value.IntegerValue
56

@<SCITEGIC>MOL_PROPERTY
Delta U+W
SciTegic.value.DoubleValue
0.853

@<SCITEGIC>MOL_PROPERTY
U+W
SciTegic.value.DoubleValue
-52.307

@<SCITEGIC>MOL_PROPERTY
Grad RMS
SciTegic.value.DoubleValue
0.000000

@<SCITEGIC>MOL_PROPERTY
U
SciTegic.value.DoubleValue
8.874

@<SCITEGIC>MOL_PROPERTY
W
SciTegic.value.DoubleValue
-61.181

@<SCITEGIC>MOL_PROPERTY
W(PB)
SciTegic.value.DoubleValue
-63.413

@<SCITEGIC>MOL_PROPERTY
W(SA)
SciTegic.value.DoubleValue
2.232

@<SCITEGIC>MOL_PROPERTY
Valence
SciTegic.value.DoubleValue
8.479

@<SCITEGIC>MOL_PROPERTY
Coulomb
SciTegic.value.DoubleValue
-0.357

@<SCITEGIC>MOL_PROPERTY
VdW
SciTegic.value.DoubleValue
0.753

@<SCITEGIC>MOL_PROPERTY
VdW6
SciTegic.value.DoubleValue
-9.081

@<SCITEGIC>MOL_PROPERTY
VdW12
SciTegic.value.DoubleValue
9.833

@<SCITEGIC>MOL_PROPERTY
Bond
SciTegic.value.DoubleValue
0.221

@<SCITEGIC>MOL_PROPERTY
Angle
SciTegic.value.DoubleValue
3.208

@<SCITEGIC>MOL_PROPERTY
Pdih
SciTegic.value.DoubleValue
5.050

@<SCITEGIC>MOL_PROPERTY
Idih
SciTegic.value.DoubleValue
0.000

@<SCITEGIC>MOL_PROPERTY
Tether
SciTegic.value.DoubleValue
0.000

@<TRIPOS>MOLECULE
guest-s21_confgen4.mol2 : confsearch ligand conformer 61
          22          21           1
SMALL
USER_CHARGES
 
@<TRIPOS>ATOM
       1    C1      18.496817   17.544907   18.594077 C.2        1 MOL1         0.6145
       2    O1      17.328842   17.694721   18.897050 O.co2      1 MOL1        -0.6735
       3    O2      18.852047   17.103637   17.519361 O.co2      1 MOL1        -0.6735
       4    C2      19.593860   17.920221   19.591655 C.3        1 MOL1        -0.1985
       5    H1      20.241135   18.658273   19.103511 H          1 MOL1         0.0740
       6    H2      20.201296   17.023636   19.762318 H          1 MOL1         0.0740
       7    C3      19.091678   18.479653   20.949321 C.3        1 MOL1        -0.1882
       8    H3      18.478746   19.374026   20.770714 H          1 MOL1         0.0742
       9    H4      18.439024   17.737847   21.430212 H          1 MOL1         0.0742
      10    C4      20.261777   18.831796   21.893447 C.3        1 MOL1        -0.1880
      11    H5      20.912813   19.573482   21.410555 H          1 MOL1         0.0742
      12    H6      20.873143   17.936224   22.070397 H          1 MOL1         0.0742
      13    C5      19.760042   19.387980   23.243347 C.3        1 MOL1        -0.1880
      14    H7      19.148552   20.283566   23.066901 H          1 MOL1         0.0742
      15    H8      19.108964   18.646596   23.726643 H          1 MOL1         0.0742
      16    C6      20.928816   19.740154   24.187297 C.3        1 MOL1        -0.1856
      17    H9      21.581239   20.483183   23.707997 H          1 MOL1         0.0742
      18    H10     21.541708   18.846124   24.367712 H          1 MOL1         0.0742
      19    C7      20.423588   20.295128   25.534176 C.3        1 MOL1        -0.2871
      20    H11     19.832961   21.208674   25.385847 H          1 MOL1         0.0754
      21    H12     21.267161   20.540116   26.192551 H          1 MOL1         0.0754
      22    H13     19.793199   19.559333   26.050532 H          1 MOL1         0.0754
@<TRIPOS>BOND
    1     1     2    1
    2     1     3    2
    3     1     4    1
    4     4     5    1
    5     4     6    1
    6     4     7    1
    7     7     8    1
    8     7     9    1
    9     7    10    1
   10    10    11    1
   11    10    12    1
   12    10    13    1
   13    13    14    1
   14    13    15    1
   15    13    16    1
   16    16    17    1
   17    16    18    1
   18    16    19    1
   19    19    20    1
   20    19    21    1
   21    19    22    1
@<TRIPOS>SUBSTRUCTURE
       1 MOL1            1 RESIDUE      1      MOL     
@<SCITEGIC>MOL_PROPERTY
VConf Rank
SciTegic.value.IntegerValue
61

@<SCITEGIC>MOL_PROPERTY
Conf_Id
SciTegic.value.IntegerValue
0

@<SCITEGIC>MOL_PROPERTY
Delta U+W
SciTegic.value.DoubleValue
0.000

@<SCITEGIC>MOL_PROPERTY
U+W
SciTegic.value.DoubleValue
-53.159

@<SCITEGIC>MOL_PROPERTY
Grad RMS
SciTegic.value.DoubleValue
0.000000

@<SCITEGIC>MOL_PROPERTY
U
SciTegic.value.DoubleValue
6.763

@<SCITEGIC>MOL_PROPERTY
W
SciTegic.value.DoubleValue
-59.922

@<SCITEGIC>MOL_PROPERTY
W(PB)
SciTegic.value.DoubleValue
-62.256

@<SCITEGIC>MOL_PROPERTY
W(SA)
SciTegic.value.DoubleValue
2.334

@<SCITEGIC>MOL_PROPERTY
Valence
SciTegic.value.DoubleValue
7.600

@<SCITEGIC>MOL_PROPERTY
Coulomb
SciTegic.value.DoubleValue
-2.139

@<SCITEGIC>MOL_PROPERTY
VdW
SciTegic.value.DoubleValue
1.302

@<SCITEGIC>MOL_PROPERTY
VdW6
SciTegic.value.DoubleValue
-6.786

@<SCITEGIC>MOL_PROPERTY
VdW12
SciTegic.value.DoubleValue
8.088

@<SCITEGIC>MOL_PROPERTY
Bond
SciTegic.value.DoubleValue
0.134

@<SCITEGIC>MOL_PROPERTY
Angle
SciTegic.value.DoubleValue
2.720

@<SCITEGIC>MOL_PROPERTY
Pdih
SciTegic.value.DoubleValue
4.746

@<SCITEGIC>MOL_PROPERTY
Idih
SciTegic.value.DoubleValue
0.000

@<SCITEGIC>MOL_PROPERTY
Tether
SciTegic.value.DoubleValue
0.000

@<TRIPOS>MOLECULE
guest-s21_confgen4.mol2 : confsearch ligand conformer 62
          22          21           1
SMALL
USER_CHARGES
 
@<TRIPOS>ATOM
       1    C1      17.274744   17.984542   19.196501 C.2        1 MOL1         0.6145
       2    O1      16.470565   18.850053   18.912566 O.co2      1 MOL1        -0.6735
       3    O2      17.039319   16.795080   19.117858 O.co2      1 MOL1        -0.6735
       4    C2      18.647634   18.414884   19.700678 C.3        1 MOL1        -0.1985
       5    H1      18.910943   19.358773   19.208332 H          1 MOL1         0.0740
       6    H2      19.379773   17.665222   19.377196 H          1 MOL1         0.0740
       7    C3      18.698256   18.582317   21.239331 C.3        1 MOL1        -0.1882
       8    H3      17.950754   19.326239   21.548188 H          1 MOL1         0.0742
       9    H4      18.419571   17.632741   21.717047 H          1 MOL1         0.0742
      10    C4      20.097777   19.018121   21.724404 C.3        1 MOL1        -0.1880
      11    H5      20.373806   19.966945   21.244076 H          1 MOL1         0.0742
      12    H6      20.842758   18.273025   21.412940 H          1 MOL1         0.0742
      13    C5      20.145216   19.184184   23.258505 C.3        1 MOL1        -0.1880
      14    H7      19.400359   19.929202   23.570374 H          1 MOL1         0.0742
      15    H8      19.869232   18.235565   23.739214 H          1 MOL1         0.0742
      16    C6      21.543635   19.619739   23.744081 C.3        1 MOL1        -0.1856
      17    H9      21.822406   20.569481   23.266847 H          1 MOL1         0.0742
      18    H10     22.291291   18.875849   23.435675 H          1 MOL1         0.0742
      19    C7      21.586868   19.784471   25.276509 C.3        1 MOL1        -0.2871
      20    H11     21.342610   18.839960   25.780141 H          1 MOL1         0.0754
      21    H12     20.870049   20.546265   25.610046 H          1 MOL1         0.0754
      22    H13     22.587711   20.094324   25.604224 H          1 MOL1         0.0754
@<TRIPOS>BOND
    1     1     2    1
    2     1     3    2
    3     1     4    1
    4     4     5    1
    5     4     6    1
    6     4     7    1
    7     7     8    1
    8     7     9    1
    9     7    10    1
   10    10    11    1
   11    10    12    1
   12    10    13    1
   13    13    14    1
   14    13    15    1
   15    13    16    1
   16    16    17    1
   17    16    18    1
   18    16    19    1
   19    19    20    1
   20    19    21    1
   21    19    22    1
@<TRIPOS>SUBSTRUCTURE
       1 MOL1            1 RESIDUE      1      MOL     
@<SCITEGIC>MOL_PROPERTY
VConf Rank
SciTegic.value.IntegerValue
62

@<SCITEGIC>MOL_PROPERTY
Conf_Id
SciTegic.value.IntegerValue
10

@<SCITEGIC>MOL_PROPERTY
Delta U+W
SciTegic.value.DoubleValue
-1.291

@<SCITEGIC>MOL_PROPERTY
U+W
SciTegic.value.DoubleValue
-54.451

@<SCITEGIC>MOL_PROPERTY
Grad RMS
SciTegic.value.DoubleValue
0.000000

@<SCITEGIC>MOL_PROPERTY
U
SciTegic.value.DoubleValue
5.779

@<SCITEGIC>MOL_PROPERTY
W
SciTegic.value.DoubleValue
-60.230

@<SCITEGIC>MOL_PROPERTY
W(PB)
SciTegic.value.DoubleValue
-62.557

@<SCITEGIC>MOL_PROPERTY
W(SA)
SciTegic.value.DoubleValue
2.328

@<SCITEGIC>MOL_PROPERTY
Valence
SciTegic.value.DoubleValue
7.101

@<SCITEGIC>MOL_PROPERTY
Coulomb
SciTegic.value.DoubleValue
-2.079

@<SCITEGIC>MOL_PROPERTY
VdW
SciTegic.value.DoubleValue
0.757

@<SCITEGIC>MOL_PROPERTY
VdW6
SciTegic.value.DoubleValue
-6.496

@<SCITEGIC>MOL_PROPERTY
VdW12
SciTegic.value.DoubleValue
7.253

@<SCITEGIC>MOL_PROPERTY
Bond
SciTegic.value.DoubleValue
0.100

@<SCITEGIC>MOL_PROPERTY
Angle
SciTegic.value.DoubleValue
2.262

@<SCITEGIC>MOL_PROPERTY
Pdih
SciTegic.value.DoubleValue
4.738

@<SCITEGIC>MOL_PROPERTY
Idih
SciTegic.value.DoubleValue
0.001

@<SCITEGIC>MOL_PROPERTY
Tether
SciTegic.value.DoubleValue
0.000

@<TRIPOS>MOLECULE
guest-s21_confgen4.mol2 : confsearch ligand conformer 63
          22          21           1
SMALL
USER_CHARGES
 
@<TRIPOS>ATOM
       1    C1      16.019939   18.686041   22.613655 C.2        1 MOL1         0.6145
       2    O1      15.496086   19.766583   22.799288 O.co2      1 MOL1        -0.6735
       3    O2      15.451374   17.741284   22.103140 O.co2      1 MOL1        -0.6735
       4    C2      17.477686   18.512512   23.024835 C.3        1 MOL1        -0.1985
       5    H1      17.623035   17.470199   23.333222 H          1 MOL1         0.0740
       6    H2      17.660222   19.139698   23.905730 H          1 MOL1         0.0740
       7    C3      18.469771   18.878341   21.893426 C.3        1 MOL1        -0.1882
       8    H3      18.264919   18.251039   21.014767 H          1 MOL1         0.0742
       9    H4      18.303101   19.920515   21.587409 H          1 MOL1         0.0742
      10    C4      19.938069   18.694369   22.334561 C.3        1 MOL1        -0.1880
      11    H5      20.102256   17.651342   22.637862 H          1 MOL1         0.0742
      12    H6      20.129750   19.319442   23.216440 H          1 MOL1         0.0742
      13    C5      20.924407   19.064337   21.202960 C.3        1 MOL1        -0.1880
      14    H7      20.674350   18.481270   20.306055 H          1 MOL1         0.0742
      15    H8      20.797603   20.121465   20.932155 H          1 MOL1         0.0742
      16    C6      22.403857   18.797304   21.565213 C.3        1 MOL1        -0.1856
      17    H9      23.022111   18.972992   20.674072 H          1 MOL1         0.0742
      18    H10     22.535839   17.739263   21.830616 H          1 MOL1         0.0742
      19    C7      22.922716   19.689557   22.713638 C.3        1 MOL1        -0.2871
      20    H11     23.996458   19.525432   22.871948 H          1 MOL1         0.0754
      21    H12     22.410216   19.466126   23.657632 H          1 MOL1         0.0754
      22    H13     22.773656   20.752534   22.483430 H          1 MOL1         0.0754
@<TRIPOS>BOND
    1     1     2    1
    2     1     3    2
    3     1     4    1
    4     4     5    1
    5     4     6    1
    6     4     7    1
    7     7     8    1
    8     7     9    1
    9     7    10    1
   10    10    11    1
   11    10    12    1
   12    10    13    1
   13    13    14    1
   14    13    15    1
   15    13    16    1
   16    16    17    1
   17    16    18    1
   18    16    19    1
   19    19    20    1
   20    19    21    1
   21    19    22    1
@<TRIPOS>SUBSTRUCTURE
       1 MOL1            1 RESIDUE      1      MOL     
@<SCITEGIC>MOL_PROPERTY
VConf Rank
SciTegic.value.IntegerValue
63

@<SCITEGIC>MOL_PROPERTY
Conf_Id
SciTegic.value.IntegerValue
37

@<SCITEGIC>MOL_PROPERTY
Delta U+W
SciTegic.value.DoubleValue
-0.345

@<SCITEGIC>MOL_PROPERTY
U+W
SciTegic.value.DoubleValue
-53.504

@<SCITEGIC>MOL_PROPERTY
Grad RMS
SciTegic.value.DoubleValue
0.000000

@<SCITEGIC>MOL_PROPERTY
U
SciTegic.value.DoubleValue
6.751

@<SCITEGIC>MOL_PROPERTY
W
SciTegic.value.DoubleValue
-60.255

@<SCITEGIC>MOL_PROPERTY
W(PB)
SciTegic.value.DoubleValue
-62.592

@<SCITEGIC>MOL_PROPERTY
W(SA)
SciTegic.value.DoubleValue
2.336

@<SCITEGIC>MOL_PROPERTY
Valence
SciTegic.value.DoubleValue
7.602

@<SCITEGIC>MOL_PROPERTY
Coulomb
SciTegic.value.DoubleValue
-1.744

@<SCITEGIC>MOL_PROPERTY
VdW
SciTegic.value.DoubleValue
0.894

@<SCITEGIC>MOL_PROPERTY
VdW6
SciTegic.value.DoubleValue
-7.110

@<SCITEGIC>MOL_PROPERTY
VdW12
SciTegic.value.DoubleValue
8.004

@<SCITEGIC>MOL_PROPERTY
Bond
SciTegic.value.DoubleValue
0.131

@<SCITEGIC>MOL_PROPERTY
Angle
SciTegic.value.DoubleValue
2.489

@<SCITEGIC>MOL_PROPERTY
Pdih
SciTegic.value.DoubleValue
4.982

@<SCITEGIC>MOL_PROPERTY
Idih
SciTegic.value.DoubleValue
0.001

@<SCITEGIC>MOL_PROPERTY
Tether
SciTegic.value.DoubleValue
0.000

@<TRIPOS>MOLECULE
guest-s21_confgen4.mol2 : confsearch ligand conformer 64
          22          21           1
SMALL
USER_CHARGES
 
@<TRIPOS>ATOM
       1    C1      18.401607   16.456757   19.619647 C.2        1 MOL1         0.6145
       2    O1      19.078401   16.394637   18.612402 O.co2      1 MOL1        -0.6735
       3    O2      17.213994   16.201504   19.649286 O.co2      1 MOL1        -0.6735
       4    C2      19.075135   16.900422   20.913376 C.3        1 MOL1        -0.1985
       5    H1      20.114589   16.551433   20.893418 H          1 MOL1         0.0740
       6    H2      18.578275   16.391562   21.748144 H          1 MOL1         0.0740
       7    C3      19.030296   18.434540   21.119832 C.3        1 MOL1        -0.1882
       8    H3      19.520585   18.929639   20.270102 H          1 MOL1         0.0742
       9    H4      17.983689   18.769369   21.123780 H          1 MOL1         0.0742
      10    C4      19.718154   18.857861   22.435887 C.3        1 MOL1        -0.1880
      11    H5      20.760113   18.512377   22.424498 H          1 MOL1         0.0742
      12    H6      19.224608   18.363233   23.283596 H          1 MOL1         0.0742
      13    C5      19.674118   20.390351   22.635378 C.3        1 MOL1        -0.1880
      14    H7      20.211247   20.886099   21.815217 H          1 MOL1         0.0742
      15    H8      18.630840   20.729003   22.573558 H          1 MOL1         0.0742
      16    C6      20.260180   20.851090   23.990207 C.3        1 MOL1        -0.1856
      17    H9      19.721041   20.362116   24.813338 H          1 MOL1         0.0742
      18    H10     20.084118   21.929887   24.101712 H          1 MOL1         0.0742
      19    C7      21.773859   20.578093   24.126074 C.3        1 MOL1        -0.2871
      20    H11     22.331107   21.032530   23.296558 H          1 MOL1         0.0754
      21    H12     21.987685   19.502047   24.136425 H          1 MOL1         0.0754
      22    H13     22.157586   21.001798   25.063169 H          1 MOL1         0.0754
@<TRIPOS>BOND
    1     1     2    1
    2     1     3    2
    3     1     4    1
    4     4     5    1
    5     4     6    1
    6     4     7    1
    7     7     8    1
    8     7     9    1
    9     7    10    1
   10    10    11    1
   11    10    12    1
   12    10    13    1
   13    13    14    1
   14    13    15    1
   15    13    16    1
   16    16    17    1
   17    16    18    1
   18    16    19    1
   19    19    20    1
   20    19    21    1
   21    19    22    1
@<TRIPOS>SUBSTRUCTURE
       1 MOL1            1 RESIDUE      1      MOL     
@<SCITEGIC>MOL_PROPERTY
VConf Rank
SciTegic.value.IntegerValue
64

@<SCITEGIC>MOL_PROPERTY
Conf_Id
SciTegic.value.IntegerValue
38

@<SCITEGIC>MOL_PROPERTY
Delta U+W
SciTegic.value.DoubleValue
-0.439

@<SCITEGIC>MOL_PROPERTY
U+W
SciTegic.value.DoubleValue
-53.598

@<SCITEGIC>MOL_PROPERTY
Grad RMS
SciTegic.value.DoubleValue
0.000000

@<SCITEGIC>MOL_PROPERTY
U
SciTegic.value.DoubleValue
6.751

@<SCITEGIC>MOL_PROPERTY
W
SciTegic.value.DoubleValue
-60.350

@<SCITEGIC>MOL_PROPERTY
W(PB)
SciTegic.value.DoubleValue
-62.659

@<SCITEGIC>MOL_PROPERTY
W(SA)
SciTegic.value.DoubleValue
2.309

@<SCITEGIC>MOL_PROPERTY
Valence
SciTegic.value.DoubleValue
7.602

@<SCITEGIC>MOL_PROPERTY
Coulomb
SciTegic.value.DoubleValue
-1.744

@<SCITEGIC>MOL_PROPERTY
VdW
SciTegic.value.DoubleValue
0.893

@<SCITEGIC>MOL_PROPERTY
VdW6
SciTegic.value.DoubleValue
-7.110

@<SCITEGIC>MOL_PROPERTY
VdW12
SciTegic.value.DoubleValue
8.004

@<SCITEGIC>MOL_PROPERTY
Bond
SciTegic.value.DoubleValue
0.131

@<SCITEGIC>MOL_PROPERTY
Angle
SciTegic.value.DoubleValue
2.489

@<SCITEGIC>MOL_PROPERTY
Pdih
SciTegic.value.DoubleValue
4.981

@<SCITEGIC>MOL_PROPERTY
Idih
SciTegic.value.DoubleValue
0.001

@<SCITEGIC>MOL_PROPERTY
Tether
SciTegic.value.DoubleValue
0.000

@<TRIPOS>MOLECULE
guest-s21_confgen4.mol2 : confsearch ligand conformer 65
          22          21           1
SMALL
USER_CHARGES
 
@<TRIPOS>ATOM
       1    C1      18.812378   22.079620   20.304970 C.2        1 MOL1         0.6145
       2    O1      17.653791   22.415146   20.157800 O.co2      1 MOL1        -0.6735
       3    O2      19.717059   22.450988   19.583742 O.co2      1 MOL1        -0.6735
       4    C2      19.145555   21.122037   21.443529 C.3        1 MOL1        -0.1985
       5    H1      18.449561   21.318641   22.267760 H          1 MOL1         0.0740
       6    H2      20.151591   21.368013   21.801086 H          1 MOL1         0.0740
       7    C3      19.063633   19.632869   21.017762 C.3        1 MOL1        -0.1882
       8    H3      18.074931   19.448351   20.575190 H          1 MOL1         0.0742
       9    H4      19.799131   19.435972   20.225569 H          1 MOL1         0.0742
      10    C4      19.274776   18.640391   22.186148 C.3        1 MOL1        -0.1880
      11    H5      19.058114   17.630073   21.816495 H          1 MOL1         0.0742
      12    H6      18.543498   18.845396   22.979794 H          1 MOL1         0.0742
      13    C5      20.707309   18.676825   22.773127 C.3        1 MOL1        -0.1880
      14    H7      21.438571   18.473571   21.978995 H          1 MOL1         0.0742
      15    H8      20.924222   19.685808   23.145931 H          1 MOL1         0.0742
      16    C6      20.919110   17.681601   23.937938 C.3        1 MOL1        -0.1856
      17    H9      20.181919   17.874222   24.729606 H          1 MOL1         0.0742
      18    H10     21.906710   17.866423   24.382610 H          1 MOL1         0.0742
      19    C7      20.841641   16.201788   23.503419 C.3        1 MOL1        -0.2871
      20    H11     19.833240   15.934953   23.163788 H          1 MOL1         0.0754
      21    H12     21.093561   15.541916   24.343671 H          1 MOL1         0.0754
      22    H13     21.546656   15.994231   22.687944 H          1 MOL1         0.0754
@<TRIPOS>BOND
    1     1     2    1
    2     1     3    2
    3     1     4    1
    4     4     5    1
    5     4     6    1
    6     4     7    1
    7     7     8    1
    8     7     9    1
    9     7    10    1
   10    10    11    1
   11    10    12    1
   12    10    13    1
   13    13    14    1
   14    13    15    1
   15    13    16    1
   16    16    17    1
   17    16    18    1
   18    16    19    1
   19    19    20    1
   20    19    21    1
   21    19    22    1
@<TRIPOS>SUBSTRUCTURE
       1 MOL1            1 RESIDUE      1      MOL     
@<SCITEGIC>MOL_PROPERTY
VConf Rank
SciTegic.value.IntegerValue
65

@<SCITEGIC>MOL_PROPERTY
Conf_Id
SciTegic.value.IntegerValue
60

@<SCITEGIC>MOL_PROPERTY
Delta U+W
SciTegic.value.DoubleValue
0.386

@<SCITEGIC>MOL_PROPERTY
U+W
SciTegic.value.DoubleValue
-52.773

@<SCITEGIC>MOL_PROPERTY
Grad RMS
SciTegic.value.DoubleValue
0.000000

@<SCITEGIC>MOL_PROPERTY
U
SciTegic.value.DoubleValue
7.689

@<SCITEGIC>MOL_PROPERTY
W
SciTegic.value.DoubleValue
-60.463

@<SCITEGIC>MOL_PROPERTY
W(PB)
SciTegic.value.DoubleValue
-62.772

@<SCITEGIC>MOL_PROPERTY
W(SA)
SciTegic.value.DoubleValue
2.309

@<SCITEGIC>MOL_PROPERTY
Valence
SciTegic.value.DoubleValue
8.197

@<SCITEGIC>MOL_PROPERTY
Coulomb
SciTegic.value.DoubleValue
-1.561

@<SCITEGIC>MOL_PROPERTY
VdW
SciTegic.value.DoubleValue
1.053

@<SCITEGIC>MOL_PROPERTY
VdW6
SciTegic.value.DoubleValue
-7.737

@<SCITEGIC>MOL_PROPERTY
VdW12
SciTegic.value.DoubleValue
8.790

@<SCITEGIC>MOL_PROPERTY
Bond
SciTegic.value.DoubleValue
0.181

@<SCITEGIC>MOL_PROPERTY
Angle
SciTegic.value.DoubleValue
2.780

@<SCITEGIC>MOL_PROPERTY
Pdih
SciTegic.value.DoubleValue
5.235

@<SCITEGIC>MOL_PROPERTY
Idih
SciTegic.value.DoubleValue
0.001

@<SCITEGIC>MOL_PROPERTY
Tether
SciTegic.value.DoubleValue
0.000

@<TRIPOS>MOLECULE
guest-s21_confgen4.mol2 : confsearch ligand conformer 66
          22          21           1
SMALL
USER_CHARGES
 
@<TRIPOS>ATOM
       1    C1      21.366354   15.531987   22.796353 C.2        1 MOL1         0.6145
       2    O1      22.561682   15.568061   22.580893 O.co2      1 MOL1        -0.6735
       3    O2      20.719314   14.503942   22.828354 O.co2      1 MOL1        -0.6735
       4    C2      20.633874   16.850854   23.016245 C.3        1 MOL1        -0.1985
       5    H1      21.325918   17.535638   23.518845 H          1 MOL1         0.0740
       6    H2      19.800554   16.666232   23.704654 H          1 MOL1         0.0740
       7    C3      20.109268   17.472647   21.695724 C.3        1 MOL1        -0.1882
       8    H3      20.956575   17.698591   21.033670 H          1 MOL1         0.0742
       9    H4      19.499155   16.723001   21.172999 H          1 MOL1         0.0742
      10    C4      19.254954   18.745828   21.905189 C.3        1 MOL1        -0.1880
      11    H5      18.413632   18.518518   22.573902 H          1 MOL1         0.0742
      12    H6      18.817543   19.023870   20.937877 H          1 MOL1         0.0742
      13    C5      20.061341   19.942225   22.467677 C.3        1 MOL1        -0.1880
      14    H7      20.496708   19.666640   23.436484 H          1 MOL1         0.0742
      15    H8      20.903740   20.168209   21.799846 H          1 MOL1         0.0742
      16    C6      19.208041   21.215805   22.672579 C.3        1 MOL1        -0.1856
      17    H9      19.816343   21.965472   23.197187 H          1 MOL1         0.0742
      18    H10     18.357608   20.991021   23.331008 H          1 MOL1         0.0742
      19    C7      18.695625   21.831005   21.352120 C.3        1 MOL1        -0.2871
      20    H11     19.526763   22.032242   20.663761 H          1 MOL1         0.0754
      21    H12     18.180519   22.780691   21.546240 H          1 MOL1         0.0754
      22    H13     17.983943   21.165402   20.848229 H          1 MOL1         0.0754
@<TRIPOS>BOND
    1     1     2    1
    2     1     3    2
    3     1     4    1
    4     4     5    1
    5     4     6    1
    6     4     7    1
    7     7     8    1
    8     7     9    1
    9     7    10    1
   10    10    11    1
   11    10    12    1
   12    10    13    1
   13    13    14    1
   14    13    15    1
   15    13    16    1
   16    16    17    1
   17    16    18    1
   18    16    19    1
   19    19    20    1
   20    19    21    1
   21    19    22    1
@<TRIPOS>SUBSTRUCTURE
       1 MOL1            1 RESIDUE      1      MOL     
@<SCITEGIC>MOL_PROPERTY
VConf Rank
SciTegic.value.IntegerValue
66

@<SCITEGIC>MOL_PROPERTY
Conf_Id
SciTegic.value.IntegerValue
28

@<SCITEGIC>MOL_PROPERTY
Delta U+W
SciTegic.value.DoubleValue
0.351

@<SCITEGIC>MOL_PROPERTY
U+W
SciTegic.value.DoubleValue
-52.808

@<SCITEGIC>MOL_PROPERTY
Grad RMS
SciTegic.value.DoubleValue
0.000000

@<SCITEGIC>MOL_PROPERTY
U
SciTegic.value.DoubleValue
7.689

@<SCITEGIC>MOL_PROPERTY
W
SciTegic.value.DoubleValue
-60.498

@<SCITEGIC>MOL_PROPERTY
W(PB)
SciTegic.value.DoubleValue
-62.768

@<SCITEGIC>MOL_PROPERTY
W(SA)
SciTegic.value.DoubleValue
2.270

@<SCITEGIC>MOL_PROPERTY
Valence
SciTegic.value.DoubleValue
8.197

@<SCITEGIC>MOL_PROPERTY
Coulomb
SciTegic.value.DoubleValue
-1.561

@<SCITEGIC>MOL_PROPERTY
VdW
SciTegic.value.DoubleValue
1.053

@<SCITEGIC>MOL_PROPERTY
VdW6
SciTegic.value.DoubleValue
-7.737

@<SCITEGIC>MOL_PROPERTY
VdW12
SciTegic.value.DoubleValue
8.791

@<SCITEGIC>MOL_PROPERTY
Bond
SciTegic.value.DoubleValue
0.181

@<SCITEGIC>MOL_PROPERTY
Angle
SciTegic.value.DoubleValue
2.780

@<SCITEGIC>MOL_PROPERTY
Pdih
SciTegic.value.DoubleValue
5.235

@<SCITEGIC>MOL_PROPERTY
Idih
SciTegic.value.DoubleValue
0.001

@<SCITEGIC>MOL_PROPERTY
Tether
SciTegic.value.DoubleValue
0.000

@<TRIPOS>MOLECULE
guest-s21_confgen4.mol2 : confsearch ligand conformer 67
          22          21           1
SMALL
USER_CHARGES
 
@<TRIPOS>ATOM
       1    C1      19.733790   15.316530   23.335946 C.2        1 MOL1         0.6145
       2    O1      20.513172   14.546098   22.811094 O.co2      1 MOL1        -0.6735
       3    O2      19.468780   15.302129   24.521702 O.co2      1 MOL1        -0.6735
       4    C2      19.066574   16.372503   22.461838 C.3        1 MOL1        -0.1985
       5    H1      18.068626   16.572150   22.870360 H          1 MOL1         0.0740
       6    H2      18.928085   15.947593   21.460395 H          1 MOL1         0.0740
       7    C3      19.881769   17.686535   22.377788 C.3        1 MOL1        -0.1882
       8    H3      20.024077   18.080935   23.392512 H          1 MOL1         0.0742
       9    H4      20.880728   17.468453   21.975513 H          1 MOL1         0.0742
      10    C4      19.180411   18.740435   21.489840 C.3        1 MOL1        -0.1880
      11    H5      18.203234   18.997574   21.921110 H          1 MOL1         0.0742
      12    H6      18.978744   18.299301   20.504094 H          1 MOL1         0.0742
      13    C5      20.012705   20.028975   21.288563 C.3        1 MOL1        -0.1880
      14    H7      20.988415   19.772707   20.853535 H          1 MOL1         0.0742
      15    H8      19.500740   20.662232   20.551132 H          1 MOL1         0.0742
      16    C6      20.218471   20.839374   22.588257 C.3        1 MOL1        -0.1856
      17    H9      20.797827   20.252192   23.312771 H          1 MOL1         0.0742
      18    H10     19.244810   21.050499   23.051525 H          1 MOL1         0.0742
      19    C7      20.954548   22.166735   22.316195 C.3        1 MOL1        -0.2871
      20    H11     20.383397   22.798387   21.623259 H          1 MOL1         0.0754
      21    H12     21.944154   21.983825   21.877321 H          1 MOL1         0.0754
      22    H13     21.095840   22.728729   23.248540 H          1 MOL1         0.0754
@<TRIPOS>BOND
    1     1     2    1
    2     1     3    2
    3     1     4    1
    4     4     5    1
    5     4     6    1
    6     4     7    1
    7     7     8    1
    8     7     9    1
    9     7    10    1
   10    10    11    1
   11    10    12    1
   12    10    13    1
   13    13    14    1
   14    13    15    1
   15    13    16    1
   16    16    17    1
   17    16    18    1
   18    16    19    1
   19    19    20    1
   20    19    21    1
   21    19    22    1
@<TRIPOS>SUBSTRUCTURE
       1 MOL1            1 RESIDUE      1      MOL     
@<SCITEGIC>MOL_PROPERTY
VConf Rank
SciTegic.value.IntegerValue
67

@<SCITEGIC>MOL_PROPERTY
Conf_Id
SciTegic.value.IntegerValue
50

@<SCITEGIC>MOL_PROPERTY
Delta U+W
SciTegic.value.DoubleValue
-0.486

@<SCITEGIC>MOL_PROPERTY
U+W
SciTegic.value.DoubleValue
-53.646

@<SCITEGIC>MOL_PROPERTY
Grad RMS
SciTegic.value.DoubleValue
0.000000

@<SCITEGIC>MOL_PROPERTY
U
SciTegic.value.DoubleValue
7.026

@<SCITEGIC>MOL_PROPERTY
W
SciTegic.value.DoubleValue
-60.672

@<SCITEGIC>MOL_PROPERTY
W(PB)
SciTegic.value.DoubleValue
-62.964

@<SCITEGIC>MOL_PROPERTY
W(SA)
SciTegic.value.DoubleValue
2.292

@<SCITEGIC>MOL_PROPERTY
Valence
SciTegic.value.DoubleValue
7.637

@<SCITEGIC>MOL_PROPERTY
Coulomb
SciTegic.value.DoubleValue
-1.488

@<SCITEGIC>MOL_PROPERTY
VdW
SciTegic.value.DoubleValue
0.877

@<SCITEGIC>MOL_PROPERTY
VdW6
SciTegic.value.DoubleValue
-7.165

@<SCITEGIC>MOL_PROPERTY
VdW12
SciTegic.value.DoubleValue
8.043

@<SCITEGIC>MOL_PROPERTY
Bond
SciTegic.value.DoubleValue
0.134

@<SCITEGIC>MOL_PROPERTY
Angle
SciTegic.value.DoubleValue
2.513

@<SCITEGIC>MOL_PROPERTY
Pdih
SciTegic.value.DoubleValue
4.990

@<SCITEGIC>MOL_PROPERTY
Idih
SciTegic.value.DoubleValue
0.001

@<SCITEGIC>MOL_PROPERTY
Tether
SciTegic.value.DoubleValue
0.000

@<TRIPOS>MOLECULE
guest-s21_confgen4.mol2 : confsearch ligand conformer 68
          22          21           1
SMALL
USER_CHARGES
 
@<TRIPOS>ATOM
       1    C1      20.594441   20.887242   25.380721 C.2        1 MOL1         0.6145
       2    O1      19.711989   21.558675   25.877638 O.co2      1 MOL1        -0.6735
       3    O2      21.747481   21.257680   25.282086 O.co2      1 MOL1        -0.6735
       4    C2      20.230556   19.512103   24.832168 C.3        1 MOL1        -0.1985
       5    H1      19.422242   19.102235   25.449624 H          1 MOL1         0.0740
       6    H2      21.099341   18.854611   24.956929 H          1 MOL1         0.0740
       7    C3      19.800490   19.552161   23.344977 C.3        1 MOL1        -0.1882
       8    H3      18.935833   20.221241   23.235420 H          1 MOL1         0.0742
       9    H4      20.616972   19.983940   22.751350 H          1 MOL1         0.0742
      10    C4      19.441818   18.144911   22.813875 C.3        1 MOL1        -0.1880
      11    H5      18.678366   17.700801   23.467227 H          1 MOL1         0.0742
      12    H6      20.321953   17.490189   22.874616 H          1 MOL1         0.0742
      13    C5      18.901315   18.152551   21.364268 C.3        1 MOL1        -0.1880
      14    H7      18.556718   17.139348   21.116080 H          1 MOL1         0.0742
      15    H8      18.018794   18.804048   21.303940 H          1 MOL1         0.0742
      16    C6      19.948709   18.596005   20.318035 C.3        1 MOL1        -0.1856
      17    H9      20.852473   17.978513   20.413533 H          1 MOL1         0.0742
      18    H10     20.249851   19.635797   20.501082 H          1 MOL1         0.0742
      19    C7      19.398184   18.479145   18.882422 C.3        1 MOL1        -0.2871
      20    H11     18.508501   19.108865   18.750883 H          1 MOL1         0.0754
      21    H12     19.121929   17.442253   18.650268 H          1 MOL1         0.0754
      22    H13     20.151911   18.800441   18.151852 H          1 MOL1         0.0754
@<TRIPOS>BOND
    1     1     2    1
    2     1     3    2
    3     1     4    1
    4     4     5    1
    5     4     6    1
    6     4     7    1
    7     7     8    1
    8     7     9    1
    9     7    10    1
   10    10    11    1
   11    10    12    1
   12    10    13    1
   13    13    14    1
   14    13    15    1
   15    13    16    1
   16    16    17    1
   17    16    18    1
   18    16    19    1
   19    19    20    1
   20    19    21    1
   21    19    22    1
@<TRIPOS>SUBSTRUCTURE
       1 MOL1            1 RESIDUE      1      MOL     
@<SCITEGIC>MOL_PROPERTY
VConf Rank
SciTegic.value.IntegerValue
68

@<SCITEGIC>MOL_PROPERTY
Conf_Id
SciTegic.value.IntegerValue
51

@<SCITEGIC>MOL_PROPERTY
Delta U+W
SciTegic.value.DoubleValue
-0.517

@<SCITEGIC>MOL_PROPERTY
U+W
SciTegic.value.DoubleValue
-53.677

@<SCITEGIC>MOL_PROPERTY
Grad RMS
SciTegic.value.DoubleValue
0.000000

@<SCITEGIC>MOL_PROPERTY
U
SciTegic.value.DoubleValue
7.026

@<SCITEGIC>MOL_PROPERTY
W
SciTegic.value.DoubleValue
-60.703

@<SCITEGIC>MOL_PROPERTY
W(PB)
SciTegic.value.DoubleValue
-63.007

@<SCITEGIC>MOL_PROPERTY
W(SA)
SciTegic.value.DoubleValue
2.304

@<SCITEGIC>MOL_PROPERTY
Valence
SciTegic.value.DoubleValue
7.638

@<SCITEGIC>MOL_PROPERTY
Coulomb
SciTegic.value.DoubleValue
-1.488

@<SCITEGIC>MOL_PROPERTY
VdW
SciTegic.value.DoubleValue
0.877

@<SCITEGIC>MOL_PROPERTY
VdW6
SciTegic.value.DoubleValue
-7.165

@<SCITEGIC>MOL_PROPERTY
VdW12
SciTegic.value.DoubleValue
8.042

@<SCITEGIC>MOL_PROPERTY
Bond
SciTegic.value.DoubleValue
0.134

@<SCITEGIC>MOL_PROPERTY
Angle
SciTegic.value.DoubleValue
2.513

@<SCITEGIC>MOL_PROPERTY
Pdih
SciTegic.value.DoubleValue
4.990

@<SCITEGIC>MOL_PROPERTY
Idih
SciTegic.value.DoubleValue
0.001

@<SCITEGIC>MOL_PROPERTY
Tether
SciTegic.value.DoubleValue
0.000

@<TRIPOS>MOLECULE
guest-s21_confgen4.mol2 : confsearch ligand conformer 69
          22          21           1
SMALL
USER_CHARGES
 
@<TRIPOS>ATOM
       1    C1      19.341082   20.884287   25.107616 C.2        1 MOL1         0.6145
       2    O1      20.330239   21.459511   25.516990 O.co2      1 MOL1        -0.6735
       3    O2      18.356106   21.457696   24.685933 O.co2      1 MOL1        -0.6735
       4    C2      19.330115   19.358602   25.143642 C.3        1 MOL1        -0.1985
       5    H1      18.290794   19.014230   25.079404 H          1 MOL1         0.0740
       6    H2      19.706139   19.051096   26.126539 H          1 MOL1         0.0740
       7    C3      20.183770   18.695246   24.031786 C.3        1 MOL1        -0.1882
       8    H3      21.214699   19.071118   24.091446 H          1 MOL1         0.0742
       9    H4      20.230542   17.613394   24.216046 H          1 MOL1         0.0742
      10    C4      19.615997   18.946902   22.616904 C.3        1 MOL1        -0.1880
      11    H5      19.582096   20.027120   22.418439 H          1 MOL1         0.0742
      12    H6      18.581170   18.581390   22.566427 H          1 MOL1         0.0742
      13    C5      20.462816   18.251905   21.529095 C.3        1 MOL1        -0.1880
      14    H7      21.497466   18.617960   21.580198 H          1 MOL1         0.0742
      15    H8      20.495863   17.171128   21.723741 H          1 MOL1         0.0742
      16    C6      19.896862   18.503418   20.115772 C.3        1 MOL1        -0.1856
      17    H9      19.863980   19.583619   19.916805 H          1 MOL1         0.0742
      18    H10     18.862403   18.136970   20.060334 H          1 MOL1         0.0742
      19    C7      20.745411   17.808431   19.032115 C.3        1 MOL1        -0.2871
      20    H11     21.778588   18.179642   19.044248 H          1 MOL1         0.0754
      21    H12     20.328980   17.997718   18.034196 H          1 MOL1         0.0754
      22    H13     20.769515   16.722042   19.188873 H          1 MOL1         0.0754
@<TRIPOS>BOND
    1     1     2    1
    2     1     3    2
    3     1     4    1
    4     4     5    1
    5     4     6    1
    6     4     7    1
    7     7     8    1
    8     7     9    1
    9     7    10    1
   10    10    11    1
   11    10    12    1
   12    10    13    1
   13    13    14    1
   14    13    15    1
   15    13    16    1
   16    16    17    1
   17    16    18    1
   18    16    19    1
   19    19    20    1
   20    19    21    1
   21    19    22    1
@<TRIPOS>SUBSTRUCTURE
       1 MOL1            1 RESIDUE      1      MOL     
@<SCITEGIC>MOL_PROPERTY
VConf Rank
SciTegic.value.IntegerValue
69

@<SCITEGIC>MOL_PROPERTY
Conf_Id
SciTegic.value.IntegerValue
43

@<SCITEGIC>MOL_PROPERTY
Delta U+W
SciTegic.value.DoubleValue
-0.129

@<SCITEGIC>MOL_PROPERTY
U+W
SciTegic.value.DoubleValue
-53.289

@<SCITEGIC>MOL_PROPERTY
Grad RMS
SciTegic.value.DoubleValue
0.000000

@<SCITEGIC>MOL_PROPERTY
U
SciTegic.value.DoubleValue
7.937

@<SCITEGIC>MOL_PROPERTY
W
SciTegic.value.DoubleValue
-61.225

@<SCITEGIC>MOL_PROPERTY
W(PB)
SciTegic.value.DoubleValue
-63.523

@<SCITEGIC>MOL_PROPERTY
W(SA)
SciTegic.value.DoubleValue
2.297

@<SCITEGIC>MOL_PROPERTY
Valence
SciTegic.value.DoubleValue
7.358

@<SCITEGIC>MOL_PROPERTY
Coulomb
SciTegic.value.DoubleValue
-0.022

@<SCITEGIC>MOL_PROPERTY
VdW
SciTegic.value.DoubleValue
0.601

@<SCITEGIC>MOL_PROPERTY
VdW6
SciTegic.value.DoubleValue
-7.363

@<SCITEGIC>MOL_PROPERTY
VdW12
SciTegic.value.DoubleValue
7.964

@<SCITEGIC>MOL_PROPERTY
Bond
SciTegic.value.DoubleValue
0.121

@<SCITEGIC>MOL_PROPERTY
Angle
SciTegic.value.DoubleValue
2.425

@<SCITEGIC>MOL_PROPERTY
Pdih
SciTegic.value.DoubleValue
4.811

@<SCITEGIC>MOL_PROPERTY
Idih
SciTegic.value.DoubleValue
0.000

@<SCITEGIC>MOL_PROPERTY
Tether
SciTegic.value.DoubleValue
0.000

@<TRIPOS>MOLECULE
guest-s21_confgen4.mol2 : confsearch ligand conformer 70
          22          21           1
SMALL
USER_CHARGES
 
@<TRIPOS>ATOM
       1    C1      20.390362   20.555647   19.287278 C.2        1 MOL1         0.6145
       2    O1      21.185036   19.923548   18.619561 O.co2      1 MOL1        -0.6735
       3    O2      20.591925   21.688368   19.678568 O.co2      1 MOL1        -0.6735
       4    C2      19.059509   19.895509   19.636817 C.3        1 MOL1        -0.1985
       5    H1      18.673205   19.431630   18.721598 H          1 MOL1         0.0740
       6    H2      18.345169   20.677212   19.922410 H          1 MOL1         0.0740
       7    C3      19.160153   18.827075   20.756334 C.3        1 MOL1        -0.1882
       8    H3      18.194304   18.311462   20.844771 H          1 MOL1         0.0742
       9    H4      19.899420   18.066692   20.468317 H          1 MOL1         0.0742
      10    C4      19.540418   19.434681   22.125202 C.3        1 MOL1        -0.1880
      11    H5      18.805844   20.203192   22.402343 H          1 MOL1         0.0742
      12    H6      20.514269   19.937899   22.049090 H          1 MOL1         0.0742
      13    C5      19.604102   18.358692   23.230485 C.3        1 MOL1        -0.1880
      14    H7      18.630497   17.855952   23.310508 H          1 MOL1         0.0742
      15    H8      20.338904   17.590593   22.952636 H          1 MOL1         0.0742
      16    C6      19.984557   18.964620   24.597656 C.3        1 MOL1        -0.1856
      17    H9      19.250732   19.732343   24.879729 H          1 MOL1         0.0742
      18    H10     20.958965   19.466909   24.521904 H          1 MOL1         0.0742
      19    C7      20.047783   17.887127   25.698733 C.3        1 MOL1        -0.2871
      20    H11     19.076321   17.389627   25.817691 H          1 MOL1         0.0754
      21    H12     20.319467   18.335215   26.663352 H          1 MOL1         0.0754
      22    H13     20.797447   17.122242   25.457163 H          1 MOL1         0.0754
@<TRIPOS>BOND
    1     1     2    1
    2     1     3    2
    3     1     4    1
    4     4     5    1
    5     4     6    1
    6     4     7    1
    7     7     8    1
    8     7     9    1
    9     7    10    1
   10    10    11    1
   11    10    12    1
   12    10    13    1
   13    13    14    1
   14    13    15    1
   15    13    16    1
   16    16    17    1
   17    16    18    1
   18    16    19    1
   19    19    20    1
   20    19    21    1
   21    19    22    1
@<TRIPOS>SUBSTRUCTURE
       1 MOL1            1 RESIDUE      1      MOL     
@<SCITEGIC>MOL_PROPERTY
VConf Rank
SciTegic.value.IntegerValue
70

@<SCITEGIC>MOL_PROPERTY
Conf_Id
SciTegic.value.IntegerValue
44

@<SCITEGIC>MOL_PROPERTY
Delta U+W
SciTegic.value.DoubleValue
-0.155

@<SCITEGIC>MOL_PROPERTY
U+W
SciTegic.value.DoubleValue
-53.314

@<SCITEGIC>MOL_PROPERTY
Grad RMS
SciTegic.value.DoubleValue
0.000000

@<SCITEGIC>MOL_PROPERTY
U
SciTegic.value.DoubleValue
7.937

@<SCITEGIC>MOL_PROPERTY
W
SciTegic.value.DoubleValue
-61.252

@<SCITEGIC>MOL_PROPERTY
W(PB)
SciTegic.value.DoubleValue
-63.556

@<SCITEGIC>MOL_PROPERTY
W(SA)
SciTegic.value.DoubleValue
2.304

@<SCITEGIC>MOL_PROPERTY
Valence
SciTegic.value.DoubleValue
7.358

@<SCITEGIC>MOL_PROPERTY
Coulomb
SciTegic.value.DoubleValue
-0.021

@<SCITEGIC>MOL_PROPERTY
VdW
SciTegic.value.DoubleValue
0.600

@<SCITEGIC>MOL_PROPERTY
VdW6
SciTegic.value.DoubleValue
-7.363

@<SCITEGIC>MOL_PROPERTY
VdW12
SciTegic.value.DoubleValue
7.964

@<SCITEGIC>MOL_PROPERTY
Bond
SciTegic.value.DoubleValue
0.121

@<SCITEGIC>MOL_PROPERTY
Angle
SciTegic.value.DoubleValue
2.425

@<SCITEGIC>MOL_PROPERTY
Pdih
SciTegic.value.DoubleValue
4.811

@<SCITEGIC>MOL_PROPERTY
Idih
SciTegic.value.DoubleValue
0.001

@<SCITEGIC>MOL_PROPERTY
Tether
SciTegic.value.DoubleValue
0.000

@<TRIPOS>MOLECULE
guest-s21_confgen4.mol2 : confsearch ligand conformer 71
          22          21           1
SMALL
USER_CHARGES
 
@<TRIPOS>ATOM
       1    C1      21.179294   20.360775   25.250475 C.2        1 MOL1         0.6145
       2    O1      21.651028   21.463453   25.054278 O.co2      1 MOL1        -0.6735
       3    O2      21.781080   19.460702   25.802371 O.co2      1 MOL1        -0.6735
       4    C2      19.746038   20.100293   24.795245 C.3        1 MOL1        -0.1985
       5    H1      19.140722   20.956688   25.114950 H          1 MOL1         0.0740
       6    H2      19.362191   19.223063   25.330052 H          1 MOL1         0.0740
       7    C3      19.594535   19.902496   23.264379 C.3        1 MOL1        -0.1882
       8    H3      18.524677   19.878450   23.021496 H          1 MOL1         0.0742
       9    H4      20.019596   20.770495   22.741596 H          1 MOL1         0.0742
      10    C4      20.272351   18.604498   22.763403 C.3        1 MOL1        -0.1880
      11    H5      19.817065   17.734564   23.256080 H          1 MOL1         0.0742
      12    H6      21.329319   18.611117   23.063016 H          1 MOL1         0.0742
      13    C5      20.203693   18.425866   21.228086 C.3        1 MOL1        -0.1880
      14    H7      20.658901   19.296139   20.735817 H          1 MOL1         0.0742
      15    H8      20.816856   17.557196   20.951780 H          1 MOL1         0.0742
      16    C6      18.768735   18.216009   20.693969 C.3        1 MOL1        -0.1856
      17    H9      18.158103   19.107422   20.888200 H          1 MOL1         0.0742
      18    H10     18.294107   17.379569   21.225278 H          1 MOL1         0.0742
      19    C7      18.766074   17.927674   19.179177 C.3        1 MOL1        -0.2871
      20    H11     19.211241   18.761268   18.620312 H          1 MOL1         0.0754
      21    H12     17.740601   17.784393   18.814569 H          1 MOL1         0.0754
      22    H13     19.336852   17.018022   18.950916 H          1 MOL1         0.0754
@<TRIPOS>BOND
    1     1     2    1
    2     1     3    2
    3     1     4    1
    4     4     5    1
    5     4     6    1
    6     4     7    1
    7     7     8    1
    8     7     9    1
    9     7    10    1
   10    10    11    1
   11    10    12    1
   12    10    13    1
   13    13    14    1
   14    13    15    1
   15    13    16    1
   16    16    17    1
   17    16    18    1
   18    16    19    1
   19    19    20    1
   20    19    21    1
   21    19    22    1
@<TRIPOS>SUBSTRUCTURE
       1 MOL1            1 RESIDUE      1      MOL     
@<SCITEGIC>MOL_PROPERTY
VConf Rank
SciTegic.value.IntegerValue
71

@<SCITEGIC>MOL_PROPERTY
Conf_Id
SciTegic.value.IntegerValue
53

@<SCITEGIC>MOL_PROPERTY
Delta U+W
SciTegic.value.DoubleValue
0.723

@<SCITEGIC>MOL_PROPERTY
U+W
SciTegic.value.DoubleValue
-52.436

@<SCITEGIC>MOL_PROPERTY
Grad RMS
SciTegic.value.DoubleValue
0.000000

@<SCITEGIC>MOL_PROPERTY
U
SciTegic.value.DoubleValue
8.587

@<SCITEGIC>MOL_PROPERTY
W
SciTegic.value.DoubleValue
-61.022

@<SCITEGIC>MOL_PROPERTY
W(PB)
SciTegic.value.DoubleValue
-63.285

@<SCITEGIC>MOL_PROPERTY
W(SA)
SciTegic.value.DoubleValue
2.263

@<SCITEGIC>MOL_PROPERTY
Valence
SciTegic.value.DoubleValue
7.933

@<SCITEGIC>MOL_PROPERTY
Coulomb
SciTegic.value.DoubleValue
-0.124

@<SCITEGIC>MOL_PROPERTY
VdW
SciTegic.value.DoubleValue
0.778

@<SCITEGIC>MOL_PROPERTY
VdW6
SciTegic.value.DoubleValue
-7.981

@<SCITEGIC>MOL_PROPERTY
VdW12
SciTegic.value.DoubleValue
8.759

@<SCITEGIC>MOL_PROPERTY
Bond
SciTegic.value.DoubleValue
0.160

@<SCITEGIC>MOL_PROPERTY
Angle
SciTegic.value.DoubleValue
2.698

@<SCITEGIC>MOL_PROPERTY
Pdih
SciTegic.value.DoubleValue
5.074

@<SCITEGIC>MOL_PROPERTY
Idih
SciTegic.value.DoubleValue
0.001

@<SCITEGIC>MOL_PROPERTY
Tether
SciTegic.value.DoubleValue
0.000

@<TRIPOS>MOLECULE
guest-s21_confgen4.mol2 : confsearch ligand conformer 72
          22          21           1
SMALL
USER_CHARGES
 
@<TRIPOS>ATOM
       1    C1      17.158181   17.848404   24.112475 C.2        1 MOL1         0.6145
       2    O1      17.260530   18.232942   25.260614 O.co2      1 MOL1        -0.6735
       3    O2      16.205055   17.220155   23.696017 O.co2      1 MOL1        -0.6735
       4    C2      18.276479   18.192032   23.135065 C.3        1 MOL1        -0.1985
       5    H1      18.336986   17.389603   22.390266 H          1 MOL1         0.0740
       6    H2      19.217674   18.194185   23.696205 H          1 MOL1         0.0740
       7    C3      18.063481   19.558199   22.435525 C.3        1 MOL1        -0.1882
       8    H3      17.055604   19.576262   21.998171 H          1 MOL1         0.0742
       9    H4      18.085646   20.357327   23.189288 H          1 MOL1         0.0742
      10    C4      19.089761   19.870264   21.317478 C.3        1 MOL1        -0.1880
      11    H5      18.807695   20.832823   20.869299 H          1 MOL1         0.0742
      12    H6      19.005627   19.129601   20.510449 H          1 MOL1         0.0742
      13    C5      20.558691   19.974915   21.800181 C.3        1 MOL1        -0.1880
      14    H7      21.058477   20.766277   21.224897 H          1 MOL1         0.0742
      15    H8      20.588951   20.295469   22.850558 H          1 MOL1         0.0742
      16    C6      21.360217   18.665996   21.612992 C.3        1 MOL1        -0.1856
      17    H9      21.369153   18.389548   20.549652 H          1 MOL1         0.0742
      18    H10     20.879305   17.838509   22.148114 H          1 MOL1         0.0742
      19    C7      22.811502   18.815656   22.111693 C.3        1 MOL1        -0.2871
      20    H11     23.334793   19.611496   21.565673 H          1 MOL1         0.0754
      21    H12     23.368991   17.881347   21.965727 H          1 MOL1         0.0754
      22    H13     22.835189   19.060856   23.181587 H          1 MOL1         0.0754
@<TRIPOS>BOND
    1     1     2    1
    2     1     3    2
    3     1     4    1
    4     4     5    1
    5     4     6    1
    6     4     7    1
    7     7     8    1
    8     7     9    1
    9     7    10    1
   10    10    11    1
   11    10    12    1
   12    10    13    1
   13    13    14    1
   14    13    15    1
   15    13    16    1
   16    16    17    1
   17    16    18    1
   18    16    19    1
   19    19    20    1
   20    19    21    1
   21    19    22    1
@<TRIPOS>SUBSTRUCTURE
       1 MOL1            1 RESIDUE      1      MOL     
@<SCITEGIC>MOL_PROPERTY
VConf Rank
SciTegic.value.IntegerValue
72

@<SCITEGIC>MOL_PROPERTY
Conf_Id
SciTegic.value.IntegerValue
5

@<SCITEGIC>MOL_PROPERTY
Delta U+W
SciTegic.value.DoubleValue
2.167

@<SCITEGIC>MOL_PROPERTY
U+W
SciTegic.value.DoubleValue
-50.993

@<SCITEGIC>MOL_PROPERTY
Grad RMS
SciTegic.value.DoubleValue
0.000000

@<SCITEGIC>MOL_PROPERTY
U
SciTegic.value.DoubleValue
10.045

@<SCITEGIC>MOL_PROPERTY
W
SciTegic.value.DoubleValue
-61.037

@<SCITEGIC>MOL_PROPERTY
W(PB)
SciTegic.value.DoubleValue
-63.303

@<SCITEGIC>MOL_PROPERTY
W(SA)
SciTegic.value.DoubleValue
2.266

@<SCITEGIC>MOL_PROPERTY
Valence
SciTegic.value.DoubleValue
10.100

@<SCITEGIC>MOL_PROPERTY
Coulomb
SciTegic.value.DoubleValue
-0.883

@<SCITEGIC>MOL_PROPERTY
VdW
SciTegic.value.DoubleValue
0.828

@<SCITEGIC>MOL_PROPERTY
VdW6
SciTegic.value.DoubleValue
-8.177

@<SCITEGIC>MOL_PROPERTY
VdW12
SciTegic.value.DoubleValue
9.005

@<SCITEGIC>MOL_PROPERTY
Bond
SciTegic.value.DoubleValue
0.182

@<SCITEGIC>MOL_PROPERTY
Angle
SciTegic.value.DoubleValue
2.988

@<SCITEGIC>MOL_PROPERTY
Pdih
SciTegic.value.DoubleValue
6.930

@<SCITEGIC>MOL_PROPERTY
Idih
SciTegic.value.DoubleValue
0.001

@<SCITEGIC>MOL_PROPERTY
Tether
SciTegic.value.DoubleValue
0.000

@<TRIPOS>MOLECULE
guest-s21_confgen4.mol2 : confsearch ligand conformer 73
          22          21           1
SMALL
USER_CHARGES
 
@<TRIPOS>ATOM
       1    C1      19.418789   19.903402   19.191015 C.2        1 MOL1         0.6145
       2    O1      20.107036   20.883059   18.983269 O.co2      1 MOL1        -0.6735
       3    O2      18.642686   19.441940   18.377812 O.co2      1 MOL1        -0.6735
       4    C2      19.517422   19.229549   20.554905 C.3        1 MOL1        -0.1985
       5    H1      20.551843   19.332980   20.901323 H          1 MOL1         0.0740
       6    H2      19.318333   18.159533   20.421824 H          1 MOL1         0.0740
       7    C3      18.538682   19.832028   21.594246 C.3        1 MOL1        -0.1882
       8    H3      18.804274   20.882989   21.773683 H          1 MOL1         0.0742
       9    H4      17.528153   19.839879   21.162749 H          1 MOL1         0.0742
      10    C4      18.490980   19.070865   22.942959 C.3        1 MOL1        -0.1880
      11    H5      18.130498   18.045174   22.784960 H          1 MOL1         0.0742
      12    H6      17.733894   19.559420   23.571514 H          1 MOL1         0.0742
      13    C5      19.829582   19.055990   23.723751 C.3        1 MOL1        -0.1880
      14    H7      20.422273   19.946627   23.473860 H          1 MOL1         0.0742
      15    H8      19.607131   19.128541   24.797178 H          1 MOL1         0.0742
      16    C6      20.660686   17.773039   23.491238 C.3        1 MOL1        -0.1856
      17    H9      20.881693   17.643727   22.425030 H          1 MOL1         0.0742
      18    H10     20.075833   16.895511   23.799597 H          1 MOL1         0.0742
      19    C7      21.983917   17.805675   24.282013 C.3        1 MOL1        -0.2871
      20    H11     22.605378   18.655850   23.971616 H          1 MOL1         0.0754
      21    H12     22.558715   16.885962   24.112399 H          1 MOL1         0.0754
      22    H13     21.795673   17.893835   25.360032 H          1 MOL1         0.0754
@<TRIPOS>BOND
    1     1     2    1
    2     1     3    2
    3     1     4    1
    4     4     5    1
    5     4     6    1
    6     4     7    1
    7     7     8    1
    8     7     9    1
    9     7    10    1
   10    10    11    1
   11    10    12    1
   12    10    13    1
   13    13    14    1
   14    13    15    1
   15    13    16    1
   16    16    17    1
   17    16    18    1
   18    16    19    1
   19    19    20    1
   20    19    21    1
   21    19    22    1
@<TRIPOS>SUBSTRUCTURE
       1 MOL1            1 RESIDUE      1      MOL     
@<SCITEGIC>MOL_PROPERTY
VConf Rank
SciTegic.value.IntegerValue
73

@<SCITEGIC>MOL_PROPERTY
Conf_Id
SciTegic.value.IntegerValue
6

@<SCITEGIC>MOL_PROPERTY
Delta U+W
SciTegic.value.DoubleValue
2.118

@<SCITEGIC>MOL_PROPERTY
U+W
SciTegic.value.DoubleValue
-51.042

@<SCITEGIC>MOL_PROPERTY
Grad RMS
SciTegic.value.DoubleValue
0.000000

@<SCITEGIC>MOL_PROPERTY
U
SciTegic.value.DoubleValue
10.045

@<SCITEGIC>MOL_PROPERTY
W
SciTegic.value.DoubleValue
-61.086

@<SCITEGIC>MOL_PROPERTY
W(PB)
SciTegic.value.DoubleValue
-63.356

@<SCITEGIC>MOL_PROPERTY
W(SA)
SciTegic.value.DoubleValue
2.270

@<SCITEGIC>MOL_PROPERTY
Valence
SciTegic.value.DoubleValue
10.100

@<SCITEGIC>MOL_PROPERTY
Coulomb
SciTegic.value.DoubleValue
-0.883

@<SCITEGIC>MOL_PROPERTY
VdW
SciTegic.value.DoubleValue
0.828

@<SCITEGIC>MOL_PROPERTY
VdW6
SciTegic.value.DoubleValue
-8.177

@<SCITEGIC>MOL_PROPERTY
VdW12
SciTegic.value.DoubleValue
9.004

@<SCITEGIC>MOL_PROPERTY
Bond
SciTegic.value.DoubleValue
0.182

@<SCITEGIC>MOL_PROPERTY
Angle
SciTegic.value.DoubleValue
2.988

@<SCITEGIC>MOL_PROPERTY
Pdih
SciTegic.value.DoubleValue
6.930

@<SCITEGIC>MOL_PROPERTY
Idih
SciTegic.value.DoubleValue
0.001

@<SCITEGIC>MOL_PROPERTY
Tether
SciTegic.value.DoubleValue
0.000

@<TRIPOS>MOLECULE
guest-s21_confgen4.mol2 : confsearch ligand conformer 74
          22          21           1
SMALL
USER_CHARGES
 
@<TRIPOS>ATOM
       1    C1      21.865036   17.592014   21.915966 C.2        1 MOL1         0.6145
       2    O1      21.805143   16.526702   22.498218 O.co2      1 MOL1        -0.6735
       3    O2      22.660408   18.466432   22.198512 O.co2      1 MOL1        -0.6735
       4    C2      20.940938   17.818170   20.720829 C.3        1 MOL1        -0.1985
       5    H1      21.219154   17.069310   19.970271 H          1 MOL1         0.0740
       6    H2      21.159697   18.798954   20.281453 H          1 MOL1         0.0740
       7    C3      19.421288   17.690484   21.023218 C.3        1 MOL1        -0.1882
       8    H3      18.901351   17.504381   20.073768 H          1 MOL1         0.0742
       9    H4      19.236568   16.805031   21.647256 H          1 MOL1         0.0742
      10    C4      18.781087   18.941772   21.673859 C.3        1 MOL1        -0.1880
      11    H5      17.692343   18.796400   21.695707 H          1 MOL1         0.0742
      12    H6      18.962321   19.821192   21.040926 H          1 MOL1         0.0742
      13    C5      19.272688   19.226083   23.111219 C.3        1 MOL1        -0.1880
      14    H7      19.186401   18.314221   23.717938 H          1 MOL1         0.0742
      15    H8      20.334650   19.501808   23.094618 H          1 MOL1         0.0742
      16    C6      18.470148   20.365859   23.773628 C.3        1 MOL1        -0.1856
      17    H9      17.404495   20.099918   23.805487 H          1 MOL1         0.0742
      18    H10     18.554039   21.278175   23.166952 H          1 MOL1         0.0742
      19    C7      18.968272   20.654041   25.204097 C.3        1 MOL1        -0.2871
      20    H11     18.866495   19.765925   25.841483 H          1 MOL1         0.0754
      21    H12     18.388140   21.466995   25.659704 H          1 MOL1         0.0754
      22    H13     20.024824   20.952662   25.198889 H          1 MOL1         0.0754
@<TRIPOS>BOND
    1     1     2    1
    2     1     3    2
    3     1     4    1
    4     4     5    1
    5     4     6    1
    6     4     7    1
    7     7     8    1
    8     7     9    1
    9     7    10    1
   10    10    11    1
   11    10    12    1
   12    10    13    1
   13    13    14    1
   14    13    15    1
   15    13    16    1
   16    16    17    1
   17    16    18    1
   18    16    19    1
   19    19    20    1
   20    19    21    1
   21    19    22    1
@<TRIPOS>SUBSTRUCTURE
       1 MOL1            1 RESIDUE      1      MOL     
@<SCITEGIC>MOL_PROPERTY
VConf Rank
SciTegic.value.IntegerValue
74

@<SCITEGIC>MOL_PROPERTY
Conf_Id
SciTegic.value.IntegerValue
8

@<SCITEGIC>MOL_PROPERTY
Delta U+W
SciTegic.value.DoubleValue
1.886

@<SCITEGIC>MOL_PROPERTY
U+W
SciTegic.value.DoubleValue
-51.274

@<SCITEGIC>MOL_PROPERTY
Grad RMS
SciTegic.value.DoubleValue
0.000000

@<SCITEGIC>MOL_PROPERTY
U
SciTegic.value.DoubleValue
11.237

@<SCITEGIC>MOL_PROPERTY
W
SciTegic.value.DoubleValue
-62.510

@<SCITEGIC>MOL_PROPERTY
W(PB)
SciTegic.value.DoubleValue
-64.777

@<SCITEGIC>MOL_PROPERTY
W(SA)
SciTegic.value.DoubleValue
2.267

@<SCITEGIC>MOL_PROPERTY
Valence
SciTegic.value.DoubleValue
9.029

@<SCITEGIC>MOL_PROPERTY
Coulomb
SciTegic.value.DoubleValue
1.667

@<SCITEGIC>MOL_PROPERTY
VdW
SciTegic.value.DoubleValue
0.540

@<SCITEGIC>MOL_PROPERTY
VdW6
SciTegic.value.DoubleValue
-8.825

@<SCITEGIC>MOL_PROPERTY
VdW12
SciTegic.value.DoubleValue
9.365

@<SCITEGIC>MOL_PROPERTY
Bond
SciTegic.value.DoubleValue
0.186

@<SCITEGIC>MOL_PROPERTY
Angle
SciTegic.value.DoubleValue
3.195

@<SCITEGIC>MOL_PROPERTY
Pdih
SciTegic.value.DoubleValue
5.642

@<SCITEGIC>MOL_PROPERTY
Idih
SciTegic.value.DoubleValue
0.007

@<SCITEGIC>MOL_PROPERTY
Tether
SciTegic.value.DoubleValue
0.000

@<TRIPOS>MOLECULE
guest-s21_confgen4.mol2 : confsearch ligand conformer 75
          22          21           1
SMALL
USER_CHARGES
 
@<TRIPOS>ATOM
       1    C1      21.720651   17.822881   20.419063 C.2        1 MOL1         0.6145
       2    O1      22.599712   17.941285   21.249722 O.co2      1 MOL1        -0.6735
       3    O2      21.834224   18.184318   19.264172 O.co2      1 MOL1        -0.6735
       4    C2      20.413040   17.157239   20.838870 C.3        1 MOL1        -0.1985
       5    H1      20.569254   16.648667   21.796816 H          1 MOL1         0.0740
       6    H2      20.196993   16.372656   20.104380 H          1 MOL1         0.0740
       7    C3      19.203476   18.128407   20.922147 C.3        1 MOL1        -0.1882
       8    H3      19.029169   18.557430   19.925712 H          1 MOL1         0.0742
       9    H4      18.299375   17.557462   21.173055 H          1 MOL1         0.0742
      10    C4      19.373899   19.285209   21.937774 C.3        1 MOL1        -0.1880
      11    H5      18.507752   19.951686   21.839845 H          1 MOL1         0.0742
      12    H6      20.256589   19.883624   21.673799 H          1 MOL1         0.0742
      13    C5      19.492237   18.804812   23.404968 C.3        1 MOL1        -0.1880
      14    H7      18.620781   18.189555   23.666719 H          1 MOL1         0.0742
      15    H8      20.374063   18.158755   23.504593 H          1 MOL1         0.0742
      16    C6      19.633047   19.962494   24.420816 C.3        1 MOL1        -0.1856
      17    H9      20.495152   20.588552   24.152108 H          1 MOL1         0.0742
      18    H10     19.855238   19.537102   25.409172 H          1 MOL1         0.0742
      19    C7      18.366760   20.839255   24.533152 C.3        1 MOL1        -0.2871
      20    H11     18.171156   21.384145   23.601389 H          1 MOL1         0.0754
      21    H12     18.484652   21.582044   25.332691 H          1 MOL1         0.0754
      22    H13     17.485281   20.228250   24.767176 H          1 MOL1         0.0754
@<TRIPOS>BOND
    1     1     2    1
    2     1     3    2
    3     1     4    1
    4     4     5    1
    5     4     6    1
    6     4     7    1
    7     7     8    1
    8     7     9    1
    9     7    10    1
   10    10    11    1
   11    10    12    1
   12    10    13    1
   13    13    14    1
   14    13    15    1
   15    13    16    1
   16    16    17    1
   17    16    18    1
   18    16    19    1
   19    19    20    1
   20    19    21    1
   21    19    22    1
@<TRIPOS>SUBSTRUCTURE
       1 MOL1            1 RESIDUE      1      MOL     
@<SCITEGIC>MOL_PROPERTY
VConf Rank
SciTegic.value.IntegerValue
75

@<SCITEGIC>MOL_PROPERTY
Conf_Id
SciTegic.value.IntegerValue
93

@<SCITEGIC>MOL_PROPERTY
Delta U+W
SciTegic.value.DoubleValue
1.836

@<SCITEGIC>MOL_PROPERTY
U+W
SciTegic.value.DoubleValue
-51.323

@<SCITEGIC>MOL_PROPERTY
Grad RMS
SciTegic.value.DoubleValue
0.000000

@<SCITEGIC>MOL_PROPERTY
U
SciTegic.value.DoubleValue
10.427

@<SCITEGIC>MOL_PROPERTY
W
SciTegic.value.DoubleValue
-61.751

@<SCITEGIC>MOL_PROPERTY
W(PB)
SciTegic.value.DoubleValue
-63.980

@<SCITEGIC>MOL_PROPERTY
W(SA)
SciTegic.value.DoubleValue
2.230

@<SCITEGIC>MOL_PROPERTY
Valence
SciTegic.value.DoubleValue
8.446

@<SCITEGIC>MOL_PROPERTY
Coulomb
SciTegic.value.DoubleValue
1.306

@<SCITEGIC>MOL_PROPERTY
VdW
SciTegic.value.DoubleValue
0.676

@<SCITEGIC>MOL_PROPERTY
VdW6
SciTegic.value.DoubleValue
-8.928

@<SCITEGIC>MOL_PROPERTY
VdW12
SciTegic.value.DoubleValue
9.604

@<SCITEGIC>MOL_PROPERTY
Bond
SciTegic.value.DoubleValue
0.209

@<SCITEGIC>MOL_PROPERTY
Angle
SciTegic.value.DoubleValue
3.066

@<SCITEGIC>MOL_PROPERTY
Pdih
SciTegic.value.DoubleValue
5.170

@<SCITEGIC>MOL_PROPERTY
Idih
SciTegic.value.DoubleValue
0.001

@<SCITEGIC>MOL_PROPERTY
Tether
SciTegic.value.DoubleValue
0.000

@<TRIPOS>MOLECULE
guest-s21_confgen4.mol2 : confsearch ligand conformer 76
          22          21           1
SMALL
USER_CHARGES
 
@<TRIPOS>ATOM
       1    C1      22.007121   21.174816   22.219598 C.2        1 MOL1         0.6145
       2    O1      22.555912   21.723212   23.155224 O.co2      1 MOL1        -0.6735
       3    O2      21.377049   21.769702   21.367608 O.co2      1 MOL1        -0.6735
       4    C2      22.143376   19.659989   22.093520 C.3        1 MOL1        -0.1985
       5    H1      23.209097   19.420432   22.186112 H          1 MOL1         0.0740
       6    H2      21.847232   19.363521   21.081040 H          1 MOL1         0.0740
       7    C3      21.343724   18.859055   23.157575 C.3        1 MOL1        -0.1882
       8    H3      21.544556   17.787062   23.027854 H          1 MOL1         0.0742
       9    H4      21.723142   19.124265   24.154086 H          1 MOL1         0.0742
      10    C4      19.813745   19.097990   23.129194 C.3        1 MOL1        -0.1880
      11    H5      19.601514   20.163245   23.293860 H          1 MOL1         0.0742
      12    H6      19.371529   18.559798   23.977008 H          1 MOL1         0.0742
      13    C5      19.141440   18.631883   21.814587 C.3        1 MOL1        -0.1880
      14    H7      19.568387   19.190413   20.971559 H          1 MOL1         0.0742
      15    H8      19.367764   17.571968   21.636119 H          1 MOL1         0.0742
      16    C6      17.609562   18.844273   21.799335 C.3        1 MOL1        -0.1856
      17    H9      17.235000   18.626078   20.789745 H          1 MOL1         0.0742
      18    H10     17.379984   19.901198   21.993200 H          1 MOL1         0.0742
      19    C7      16.855258   17.952945   22.809964 C.3        1 MOL1        -0.2871
      20    H11     17.105778   18.217644   23.844625 H          1 MOL1         0.0754
      21    H12     17.097445   16.893273   22.656540 H          1 MOL1         0.0754
      22    H13     15.770566   18.072050   22.690986 H          1 MOL1         0.0754
@<TRIPOS>BOND
    1     1     2    1
    2     1     3    2
    3     1     4    1
    4     4     5    1
    5     4     6    1
    6     4     7    1
    7     7     8    1
    8     7     9    1
    9     7    10    1
   10    10    11    1
   11    10    12    1
   12    10    13    1
   13    13    14    1
   14    13    15    1
   15    13    16    1
   16    16    17    1
   17    16    18    1
   18    16    19    1
   19    19    20    1
   20    19    21    1
   21    19    22    1
@<TRIPOS>SUBSTRUCTURE
       1 MOL1            1 RESIDUE      1      MOL     
@<SCITEGIC>MOL_PROPERTY
VConf Rank
SciTegic.value.IntegerValue
76

@<SCITEGIC>MOL_PROPERTY
Conf_Id
SciTegic.value.IntegerValue
70

@<SCITEGIC>MOL_PROPERTY
Delta U+W
SciTegic.value.DoubleValue
1.803

@<SCITEGIC>MOL_PROPERTY
U+W
SciTegic.value.DoubleValue
-51.356

@<SCITEGIC>MOL_PROPERTY
Grad RMS
SciTegic.value.DoubleValue
0.000000

@<SCITEGIC>MOL_PROPERTY
U
SciTegic.value.DoubleValue
10.428

@<SCITEGIC>MOL_PROPERTY
W
SciTegic.value.DoubleValue
-61.784

@<SCITEGIC>MOL_PROPERTY
W(PB)
SciTegic.value.DoubleValue
-64.014

@<SCITEGIC>MOL_PROPERTY
W(SA)
SciTegic.value.DoubleValue
2.230

@<SCITEGIC>MOL_PROPERTY
Valence
SciTegic.value.DoubleValue
8.445

@<SCITEGIC>MOL_PROPERTY
Coulomb
SciTegic.value.DoubleValue
1.306

@<SCITEGIC>MOL_PROPERTY
VdW
SciTegic.value.DoubleValue
0.676

@<SCITEGIC>MOL_PROPERTY
VdW6
SciTegic.value.DoubleValue
-8.929

@<SCITEGIC>MOL_PROPERTY
VdW12
SciTegic.value.DoubleValue
9.605

@<SCITEGIC>MOL_PROPERTY
Bond
SciTegic.value.DoubleValue
0.209

@<SCITEGIC>MOL_PROPERTY
Angle
SciTegic.value.DoubleValue
3.066

@<SCITEGIC>MOL_PROPERTY
Pdih
SciTegic.value.DoubleValue
5.170

@<SCITEGIC>MOL_PROPERTY
Idih
SciTegic.value.DoubleValue
0.001

@<SCITEGIC>MOL_PROPERTY
Tether
SciTegic.value.DoubleValue
0.000

@<TRIPOS>MOLECULE
guest-s21_confgen4.mol2 : confsearch ligand conformer 77
          22          21           1
SMALL
USER_CHARGES
 
@<TRIPOS>ATOM
       1    C1      17.671824   21.149995   23.960202 C.2        1 MOL1         0.6145
       2    O1      17.229622   20.498338   24.885789 O.co2      1 MOL1        -0.6735
       3    O2      16.973890   21.699895   23.131120 O.co2      1 MOL1        -0.6735
       4    C2      19.186109   21.302266   23.846835 C.3        1 MOL1        -0.1985
       5    H1      19.568925   21.532372   24.848105 H          1 MOL1         0.0740
       6    H2      19.404241   22.172540   23.216056 H          1 MOL1         0.0740
       7    C3      19.905637   20.044821   23.293579 C.3        1 MOL1        -0.1882
       8    H3      20.991297   20.192852   23.369044 H          1 MOL1         0.0742
       9    H4      19.657048   19.184602   23.929077 H          1 MOL1         0.0742
      10    C4      19.531543   19.748540   21.821562 C.3        1 MOL1        -0.1880
      11    H5      19.706364   20.651201   21.220329 H          1 MOL1         0.0742
      12    H6      18.457317   19.530238   21.746148 H          1 MOL1         0.0742
      13    C5      20.338937   18.582539   21.203432 C.3        1 MOL1        -0.1880
      14    H7      20.100403   18.523446   20.132685 H          1 MOL1         0.0742
      15    H8      21.413268   18.802011   21.270577 H          1 MOL1         0.0742
      16    C6      20.044463   17.214439   21.858992 C.3        1 MOL1        -0.1856
      17    H9      18.963382   17.019154   21.839069 H          1 MOL1         0.0742
      18    H10     20.348418   17.227098   22.913890 H          1 MOL1         0.0742
      19    C7      20.785076   16.070518   21.137417 C.3        1 MOL1        -0.2871
      20    H11     20.475916   16.003351   20.086104 H          1 MOL1         0.0754
      21    H12     20.568357   15.106821   21.616353 H          1 MOL1         0.0754
      22    H13     21.871414   16.226760   21.166240 H          1 MOL1         0.0754
@<TRIPOS>BOND
    1     1     2    1
    2     1     3    2
    3     1     4    1
    4     4     5    1
    5     4     6    1
    6     4     7    1
    7     7     8    1
    8     7     9    1
    9     7    10    1
   10    10    11    1
   11    10    12    1
   12    10    13    1
   13    13    14    1
   14    13    15    1
   15    13    16    1
   16    16    17    1
   17    16    18    1
   18    16    19    1
   19    19    20    1
   20    19    21    1
   21    19    22    1
@<TRIPOS>SUBSTRUCTURE
       1 MOL1            1 RESIDUE      1      MOL     
@<SCITEGIC>MOL_PROPERTY
VConf Rank
SciTegic.value.IntegerValue
77

@<SCITEGIC>MOL_PROPERTY
Conf_Id
SciTegic.value.IntegerValue
85

@<SCITEGIC>MOL_PROPERTY
Delta U+W
SciTegic.value.DoubleValue
0.707

@<SCITEGIC>MOL_PROPERTY
U+W
SciTegic.value.DoubleValue
-52.452

@<SCITEGIC>MOL_PROPERTY
Grad RMS
SciTegic.value.DoubleValue
0.000000

@<SCITEGIC>MOL_PROPERTY
U
SciTegic.value.DoubleValue
8.925

@<SCITEGIC>MOL_PROPERTY
W
SciTegic.value.DoubleValue
-61.378

@<SCITEGIC>MOL_PROPERTY
W(PB)
SciTegic.value.DoubleValue
-63.661

@<SCITEGIC>MOL_PROPERTY
W(SA)
SciTegic.value.DoubleValue
2.283

@<SCITEGIC>MOL_PROPERTY
Valence
SciTegic.value.DoubleValue
7.881

@<SCITEGIC>MOL_PROPERTY
Coulomb
SciTegic.value.DoubleValue
0.349

@<SCITEGIC>MOL_PROPERTY
VdW
SciTegic.value.DoubleValue
0.695

@<SCITEGIC>MOL_PROPERTY
VdW6
SciTegic.value.DoubleValue
-8.049

@<SCITEGIC>MOL_PROPERTY
VdW12
SciTegic.value.DoubleValue
8.743

@<SCITEGIC>MOL_PROPERTY
Bond
SciTegic.value.DoubleValue
0.156

@<SCITEGIC>MOL_PROPERTY
Angle
SciTegic.value.DoubleValue
2.660

@<SCITEGIC>MOL_PROPERTY
Pdih
SciTegic.value.DoubleValue
5.064

@<SCITEGIC>MOL_PROPERTY
Idih
SciTegic.value.DoubleValue
0.001

@<SCITEGIC>MOL_PROPERTY
Tether
SciTegic.value.DoubleValue
0.000

@<TRIPOS>MOLECULE
guest-s21_confgen4.mol2 : confsearch ligand conformer 78
          22          21           1
SMALL
USER_CHARGES
 
@<TRIPOS>ATOM
       1    C1      23.175556   19.274766   22.433755 C.2        1 MOL1         0.6145
       2    O1      23.771061   18.239594   22.208511 O.co2      1 MOL1        -0.6735
       3    O2      23.440961   20.332951   21.898237 O.co2      1 MOL1        -0.6735
       4    C2      22.047849   19.251767   23.461930 C.3        1 MOL1        -0.1985
       5    H1      22.190452   20.115098   24.122472 H          1 MOL1         0.0740
       6    H2      22.157853   18.354901   24.083529 H          1 MOL1         0.0740
       7    C3      20.626370   19.303543   22.843541 C.3        1 MOL1        -0.1882
       8    H3      19.901299   19.441279   23.655457 H          1 MOL1         0.0742
       9    H4      20.545658   20.180650   22.186695 H          1 MOL1         0.0742
      10    C4      20.273321   18.021094   22.055022 C.3        1 MOL1        -0.1880
      11    H5      20.272816   17.161128   22.738511 H          1 MOL1         0.0742
      12    H6      21.061197   17.824034   21.315251 H          1 MOL1         0.0742
      13    C5      18.917474   18.086469   21.308074 C.3        1 MOL1        -0.1880
      14    H7      18.940685   18.886139   20.555137 H          1 MOL1         0.0742
      15    H8      18.806021   17.149970   20.744678 H          1 MOL1         0.0742
      16    C6      17.678645   18.247516   22.224191 C.3        1 MOL1        -0.1856
      17    H9      17.878751   17.817293   23.215189 H          1 MOL1         0.0742
      18    H10     16.850001   17.663904   21.799875 H          1 MOL1         0.0742
      19    C7      17.208741   19.712967   22.360840 C.3        1 MOL1        -0.2871
      20    H11     17.985893   20.352457   22.794418 H          1 MOL1         0.0754
      21    H12     16.324687   19.773753   23.008585 H          1 MOL1         0.0754
      22    H13     16.936432   20.128073   21.381748 H          1 MOL1         0.0754
@<TRIPOS>BOND
    1     1     2    1
    2     1     3    2
    3     1     4    1
    4     4     5    1
    5     4     6    1
    6     4     7    1
    7     7     8    1
    8     7     9    1
    9     7    10    1
   10    10    11    1
   11    10    12    1
   12    10    13    1
   13    13    14    1
   14    13    15    1
   15    13    16    1
   16    16    17    1
   17    16    18    1
   18    16    19    1
   19    19    20    1
   20    19    21    1
   21    19    22    1
@<TRIPOS>SUBSTRUCTURE
       1 MOL1            1 RESIDUE      1      MOL     
@<SCITEGIC>MOL_PROPERTY
VConf Rank
SciTegic.value.IntegerValue
78

@<SCITEGIC>MOL_PROPERTY
Conf_Id
SciTegic.value.IntegerValue
82

@<SCITEGIC>MOL_PROPERTY
Delta U+W
SciTegic.value.DoubleValue
3.438

@<SCITEGIC>MOL_PROPERTY
U+W
SciTegic.value.DoubleValue
-49.721

@<SCITEGIC>MOL_PROPERTY
Grad RMS
SciTegic.value.DoubleValue
0.000000

@<SCITEGIC>MOL_PROPERTY
U
SciTegic.value.DoubleValue
11.773

@<SCITEGIC>MOL_PROPERTY
W
SciTegic.value.DoubleValue
-61.495

@<SCITEGIC>MOL_PROPERTY
W(PB)
SciTegic.value.DoubleValue
-63.749

@<SCITEGIC>MOL_PROPERTY
W(SA)
SciTegic.value.DoubleValue
2.254

@<SCITEGIC>MOL_PROPERTY
Valence
SciTegic.value.DoubleValue
10.419

@<SCITEGIC>MOL_PROPERTY
Coulomb
SciTegic.value.DoubleValue
0.565

@<SCITEGIC>MOL_PROPERTY
VdW
SciTegic.value.DoubleValue
0.789

@<SCITEGIC>MOL_PROPERTY
VdW6
SciTegic.value.DoubleValue
-8.847

@<SCITEGIC>MOL_PROPERTY
VdW12
SciTegic.value.DoubleValue
9.636

@<SCITEGIC>MOL_PROPERTY
Bond
SciTegic.value.DoubleValue
0.200

@<SCITEGIC>MOL_PROPERTY
Angle
SciTegic.value.DoubleValue
3.187

@<SCITEGIC>MOL_PROPERTY
Pdih
SciTegic.value.DoubleValue
7.032

@<SCITEGIC>MOL_PROPERTY
Idih
SciTegic.value.DoubleValue
0.001

@<SCITEGIC>MOL_PROPERTY
Tether
SciTegic.value.DoubleValue
0.000

@<TRIPOS>MOLECULE
guest-s21_confgen4.mol2 : confsearch ligand conformer 79
          22          21           1
SMALL
USER_CHARGES
 
@<TRIPOS>ATOM
       1    C1      20.884089   17.844613   19.365776 C.2        1 MOL1         0.6145
       2    O1      20.335465   18.533505   18.528273 O.co2      1 MOL1        -0.6735
       3    O2      22.063310   17.553061   19.328684 O.co2      1 MOL1        -0.6735
       4    C2      20.039272   17.297740   20.513214 C.3        1 MOL1        -0.1985
       5    H1      20.567961   16.449755   20.965170 H          1 MOL1         0.0740
       6    H2      19.115180   16.899848   20.077637 H          1 MOL1         0.0740
       7    C3      19.688215   18.349412   21.597851 C.3        1 MOL1        -0.1882
       8    H3      19.201704   19.213524   21.124676 H          1 MOL1         0.0742
       9    H4      18.957938   17.905399   22.285932 H          1 MOL1         0.0742
      10    C4      20.926707   18.815421   22.397886 C.3        1 MOL1        -0.1880
      11    H5      21.701196   19.156665   21.697487 H          1 MOL1         0.0742
      12    H6      21.356220   17.959767   22.936472 H          1 MOL1         0.0742
      13    C5      20.642747   19.964052   23.398156 C.3        1 MOL1        -0.1880
      14    H7      21.599795   20.243554   23.859464 H          1 MOL1         0.0742
      15    H8      20.300176   20.857353   22.858170 H          1 MOL1         0.0742
      16    C6      19.648223   19.607323   24.531100 C.3        1 MOL1        -0.1856
      17    H9      19.975145   20.104697   25.454702 H          1 MOL1         0.0742
      18    H10     19.677526   18.528758   24.738589 H          1 MOL1         0.0742
      19    C7      18.200240   20.057057   24.234265 C.3        1 MOL1        -0.2871
      20    H11     18.150068   21.145164   24.097917 H          1 MOL1         0.0754
      21    H12     17.537568   19.792606   25.068382 H          1 MOL1         0.0754
      22    H13     17.803224   19.584608   23.328686 H          1 MOL1         0.0754
@<TRIPOS>BOND
    1     1     2    1
    2     1     3    2
    3     1     4    1
    4     4     5    1
    5     4     6    1
    6     4     7    1
    7     7     8    1
    8     7     9    1
    9     7    10    1
   10    10    11    1
   11    10    12    1
   12    10    13    1
   13    13    14    1
   14    13    15    1
   15    13    16    1
   16    16    17    1
   17    16    18    1
   18    16    19    1
   19    19    20    1
   20    19    21    1
   21    19    22    1
@<TRIPOS>SUBSTRUCTURE
       1 MOL1            1 RESIDUE      1      MOL     
@<SCITEGIC>MOL_PROPERTY
VConf Rank
SciTegic.value.IntegerValue
79

@<SCITEGIC>MOL_PROPERTY
Conf_Id
SciTegic.value.IntegerValue
94

@<SCITEGIC>MOL_PROPERTY
Delta U+W
SciTegic.value.DoubleValue
3.471

@<SCITEGIC>MOL_PROPERTY
U+W
SciTegic.value.DoubleValue
-49.688

@<SCITEGIC>MOL_PROPERTY
Grad RMS
SciTegic.value.DoubleValue
0.000000

@<SCITEGIC>MOL_PROPERTY
U
SciTegic.value.DoubleValue
11.773

@<SCITEGIC>MOL_PROPERTY
W
SciTegic.value.DoubleValue
-61.461

@<SCITEGIC>MOL_PROPERTY
W(PB)
SciTegic.value.DoubleValue
-63.710

@<SCITEGIC>MOL_PROPERTY
W(SA)
SciTegic.value.DoubleValue
2.248

@<SCITEGIC>MOL_PROPERTY
Valence
SciTegic.value.DoubleValue
10.419

@<SCITEGIC>MOL_PROPERTY
Coulomb
SciTegic.value.DoubleValue
0.566

@<SCITEGIC>MOL_PROPERTY
VdW
SciTegic.value.DoubleValue
0.789

@<SCITEGIC>MOL_PROPERTY
VdW6
SciTegic.value.DoubleValue
-8.847

@<SCITEGIC>MOL_PROPERTY
VdW12
SciTegic.value.DoubleValue
9.636

@<SCITEGIC>MOL_PROPERTY
Bond
SciTegic.value.DoubleValue
0.200

@<SCITEGIC>MOL_PROPERTY
Angle
SciTegic.value.DoubleValue
3.187

@<SCITEGIC>MOL_PROPERTY
Pdih
SciTegic.value.DoubleValue
7.032

@<SCITEGIC>MOL_PROPERTY
Idih
SciTegic.value.DoubleValue
0.001

@<SCITEGIC>MOL_PROPERTY
Tether
SciTegic.value.DoubleValue
0.000

@<TRIPOS>MOLECULE
guest-s21_confgen4.mol2 : confsearch ligand conformer 80
          22          21           1
SMALL
USER_CHARGES
 
@<TRIPOS>ATOM
       1    C1      19.050658   20.480647   25.282599 C.2        1 MOL1         0.6145
       2    O1      19.726219   20.771878   26.249811 O.co2      1 MOL1        -0.6735
       3    O2      17.873361   20.186999   25.348312 O.co2      1 MOL1        -0.6735
       4    C2      19.722282   20.464225   23.914175 C.3        1 MOL1        -0.1985
       5    H1      20.501770   21.235320   23.907489 H          1 MOL1         0.0740
       6    H2      18.971261   20.753519   23.170327 H          1 MOL1         0.0740
       7    C3      20.333008   19.083148   23.561906 C.3        1 MOL1        -0.1882
       8    H3      21.018754   18.784769   24.366779 H          1 MOL1         0.0742
       9    H4      19.539372   18.324473   23.542413 H          1 MOL1         0.0742
      10    C4      21.110775   19.074804   22.221972 C.3        1 MOL1        -0.1880
      11    H5      21.552934   18.080747   22.074253 H          1 MOL1         0.0742
      12    H6      21.958910   19.768406   22.300255 H          1 MOL1         0.0742
      13    C5      20.275204   19.454344   20.970997 C.3        1 MOL1        -0.1880
      14    H7      19.968654   20.505991   21.043898 H          1 MOL1         0.0742
      15    H8      20.923542   19.395449   20.086274 H          1 MOL1         0.0742
      16    C6      19.019524   18.581454   20.727566 C.3        1 MOL1        -0.1856
      17    H9      18.498285   18.958273   19.836934 H          1 MOL1         0.0742
      18    H10     18.314225   18.692408   21.561979 H          1 MOL1         0.0742
      19    C7      19.346909   17.087407   20.516740 C.3        1 MOL1        -0.2871
      20    H11     20.064190   16.954482   19.696501 H          1 MOL1         0.0754
      21    H12     18.437480   16.526379   20.265876 H          1 MOL1         0.0754
      22    H13     19.773846   16.641246   21.423724 H          1 MOL1         0.0754
@<TRIPOS>BOND
    1     1     2    1
    2     1     3    2
    3     1     4    1
    4     4     5    1
    5     4     6    1
    6     4     7    1
    7     7     8    1
    8     7     9    1
    9     7    10    1
   10    10    11    1
   11    10    12    1
   12    10    13    1
   13    13    14    1
   14    13    15    1
   15    13    16    1
   16    16    17    1
   17    16    18    1
   18    16    19    1
   19    19    20    1
   20    19    21    1
   21    19    22    1
@<TRIPOS>SUBSTRUCTURE
       1 MOL1            1 RESIDUE      1      MOL     
@<SCITEGIC>MOL_PROPERTY
VConf Rank
SciTegic.value.IntegerValue
80

@<SCITEGIC>MOL_PROPERTY
Conf_Id
SciTegic.value.IntegerValue
56

@<SCITEGIC>MOL_PROPERTY
Delta U+W
SciTegic.value.DoubleValue
0.853

@<SCITEGIC>MOL_PROPERTY
U+W
SciTegic.value.DoubleValue
-52.307

@<SCITEGIC>MOL_PROPERTY
Grad RMS
SciTegic.value.DoubleValue
0.000000

@<SCITEGIC>MOL_PROPERTY
U
SciTegic.value.DoubleValue
8.874

@<SCITEGIC>MOL_PROPERTY
W
SciTegic.value.DoubleValue
-61.181

@<SCITEGIC>MOL_PROPERTY
W(PB)
SciTegic.value.DoubleValue
-63.413

@<SCITEGIC>MOL_PROPERTY
W(SA)
SciTegic.value.DoubleValue
2.232

@<SCITEGIC>MOL_PROPERTY
Valence
SciTegic.value.DoubleValue
8.479

@<SCITEGIC>MOL_PROPERTY
Coulomb
SciTegic.value.DoubleValue
-0.357

@<SCITEGIC>MOL_PROPERTY
VdW
SciTegic.value.DoubleValue
0.753

@<SCITEGIC>MOL_PROPERTY
VdW6
SciTegic.value.DoubleValue
-9.081

@<SCITEGIC>MOL_PROPERTY
VdW12
SciTegic.value.DoubleValue
9.833

@<SCITEGIC>MOL_PROPERTY
Bond
SciTegic.value.DoubleValue
0.221

@<SCITEGIC>MOL_PROPERTY
Angle
SciTegic.value.DoubleValue
3.208

@<SCITEGIC>MOL_PROPERTY
Pdih
SciTegic.value.DoubleValue
5.050

@<SCITEGIC>MOL_PROPERTY
Idih
SciTegic.value.DoubleValue
0.000

@<SCITEGIC>MOL_PROPERTY
Tether
SciTegic.value.DoubleValue
0.000

@<TRIPOS>MOLECULE
guest-s21_confgen4.mol2 : confsearch ligand conformer 81
          22          21           1
SMALL
USER_CHARGES
 
@<TRIPOS>ATOM
       1    C1      23.528963   19.395746   20.571676 C.2        1 MOL1         0.6145
       2    O1      23.597200   18.228871   20.236790 O.co2      1 MOL1        -0.6735
       3    O2      24.419898   20.196821   20.370589 O.co2      1 MOL1        -0.6735
       4    C2      22.275436   19.909526   21.281765 C.3        1 MOL1        -0.1985
       5    H1      21.877204   20.737706   20.683853 H          1 MOL1         0.0740
       6    H2      22.593511   20.331215   22.242480 H          1 MOL1         0.0740
       7    C3      21.165424   18.850488   21.515687 C.3        1 MOL1        -0.1882
       8    H3      20.855771   18.427596   20.549889 H          1 MOL1         0.0742
       9    H4      21.572661   18.020824   22.110083 H          1 MOL1         0.0742
      10    C4      19.939575   19.452925   22.236017 C.3        1 MOL1        -0.1880
      11    H5      19.534231   20.282097   21.639945 H          1 MOL1         0.0742
      12    H6      20.251628   19.875169   23.201141 H          1 MOL1         0.0742
      13    C5      18.836711   18.397804   22.467789 C.3        1 MOL1        -0.1880
      14    H7      18.524360   17.975215   21.502915 H          1 MOL1         0.0742
      15    H8      19.241597   17.568418   23.063871 H          1 MOL1         0.0742
      16    C6      17.611374   18.999157   23.187528 C.3        1 MOL1        -0.1856
      17    H9      17.202331   19.827916   22.593123 H          1 MOL1         0.0742
      18    H10     17.919628   19.421178   24.154148 H          1 MOL1         0.0742
      19    C7      16.512410   17.942325   23.417143 C.3        1 MOL1        -0.2871
      20    H11     16.162793   17.525626   22.463446 H          1 MOL1         0.0754
      21    H12     15.649261   18.386770   23.929524 H          1 MOL1         0.0754
      22    H13     16.885439   17.115885   24.036217 H          1 MOL1         0.0754
@<TRIPOS>BOND
    1     1     2    1
    2     1     3    2
    3     1     4    1
    4     4     5    1
    5     4     6    1
    6     4     7    1
    7     7     8    1
    8     7     9    1
    9     7    10    1
   10    10    11    1
   11    10    12    1
   12    10    13    1
   13    13    14    1
   14    13    15    1
   15    13    16    1
   16    16    17    1
   17    16    18    1
   18    16    19    1
   19    19    20    1
   20    19    21    1
   21    19    22    1
@<TRIPOS>SUBSTRUCTURE
       1 MOL1            1 RESIDUE      1      MOL     
@<SCITEGIC>MOL_PROPERTY
VConf Rank
SciTegic.value.IntegerValue
81

@<SCITEGIC>MOL_PROPERTY
Conf_Id
SciTegic.value.IntegerValue
0

@<SCITEGIC>MOL_PROPERTY
Delta U+W
SciTegic.value.DoubleValue
0.000

@<SCITEGIC>MOL_PROPERTY
U+W
SciTegic.value.DoubleValue
-53.159

@<SCITEGIC>MOL_PROPERTY
Grad RMS
SciTegic.value.DoubleValue
0.000000

@<SCITEGIC>MOL_PROPERTY
U
SciTegic.value.DoubleValue
6.763

@<SCITEGIC>MOL_PROPERTY
W
SciTegic.value.DoubleValue
-59.922

@<SCITEGIC>MOL_PROPERTY
W(PB)
SciTegic.value.DoubleValue
-62.256

@<SCITEGIC>MOL_PROPERTY
W(SA)
SciTegic.value.DoubleValue
2.334

@<SCITEGIC>MOL_PROPERTY
Valence
SciTegic.value.DoubleValue
7.600

@<SCITEGIC>MOL_PROPERTY
Coulomb
SciTegic.value.DoubleValue
-2.139

@<SCITEGIC>MOL_PROPERTY
VdW
SciTegic.value.DoubleValue
1.302

@<SCITEGIC>MOL_PROPERTY
VdW6
SciTegic.value.DoubleValue
-6.786

@<SCITEGIC>MOL_PROPERTY
VdW12
SciTegic.value.DoubleValue
8.088

@<SCITEGIC>MOL_PROPERTY
Bond
SciTegic.value.DoubleValue
0.134

@<SCITEGIC>MOL_PROPERTY
Angle
SciTegic.value.DoubleValue
2.720

@<SCITEGIC>MOL_PROPERTY
Pdih
SciTegic.value.DoubleValue
4.746

@<SCITEGIC>MOL_PROPERTY
Idih
SciTegic.value.DoubleValue
0.000

@<SCITEGIC>MOL_PROPERTY
Tether
SciTegic.value.DoubleValue
0.000

@<TRIPOS>MOLECULE
guest-s21_confgen4.mol2 : confsearch ligand conformer 82
          22          21           1
SMALL
USER_CHARGES
 
@<TRIPOS>ATOM
       1    C1      20.426385   15.029708   21.730451 C.2        1 MOL1         0.6145
       2    O1      19.708635   14.330177   22.417418 O.co2      1 MOL1        -0.6735
       3    O2      21.566489   14.734924   21.430961 O.co2      1 MOL1        -0.6735
       4    C2      19.873441   16.361420   21.235466 C.3        1 MOL1        -0.1985
       5    H1      18.795241   16.243576   21.073418 H          1 MOL1         0.0740
       6    H2      20.326228   16.576976   20.260181 H          1 MOL1         0.0740
       7    C3      20.141902   17.527200   22.218796 C.3        1 MOL1        -0.1882
       8    H3      19.693622   17.290142   23.193692 H          1 MOL1         0.0742
       9    H4      21.224562   17.623532   22.380479 H          1 MOL1         0.0742
      10    C4      19.572749   18.863525   21.695176 C.3        1 MOL1        -0.1880
      11    H5      18.490621   18.763430   21.533458 H          1 MOL1         0.0742
      12    H6      20.021926   19.096889   20.720007 H          1 MOL1         0.0742
      13    C5      19.841881   20.023729   22.677412 C.3        1 MOL1        -0.1880
      14    H7      19.392865   19.790739   23.652720 H          1 MOL1         0.0742
      15    H8      20.923917   20.124146   22.839408 H          1 MOL1         0.0742
      16    C6      19.273339   21.359653   22.154790 C.3        1 MOL1        -0.1856
      17    H9      18.190642   21.263741   21.993406 H          1 MOL1         0.0742
      18    H10     19.721683   21.597147   21.180079 H          1 MOL1         0.0742
      19    C7      19.544141   22.515683   23.138458 C.3        1 MOL1        -0.2871
      20    H11     20.622048   22.654705   23.294014 H          1 MOL1         0.0754
      21    H12     19.079585   22.318688   24.113541 H          1 MOL1         0.0754
      22    H13     19.133377   23.457252   22.751401 H          1 MOL1         0.0754
@<TRIPOS>BOND
    1     1     2    1
    2     1     3    2
    3     1     4    1
    4     4     5    1
    5     4     6    1
    6     4     7    1
    7     7     8    1
    8     7     9    1
    9     7    10    1
   10    10    11    1
   11    10    12    1
   12    10    13    1
   13    13    14    1
   14    13    15    1
   15    13    16    1
   16    16    17    1
   17    16    18    1
   18    16    19    1
   19    19    20    1
   20    19    21    1
   21    19    22    1
@<TRIPOS>SUBSTRUCTURE
       1 MOL1            1 RESIDUE      1      MOL     
@<SCITEGIC>MOL_PROPERTY
VConf Rank
SciTegic.value.IntegerValue
82

@<SCITEGIC>MOL_PROPERTY
Conf_Id
SciTegic.value.IntegerValue
10

@<SCITEGIC>MOL_PROPERTY
Delta U+W
SciTegic.value.DoubleValue
-1.291

@<SCITEGIC>MOL_PROPERTY
U+W
SciTegic.value.DoubleValue
-54.451

@<SCITEGIC>MOL_PROPERTY
Grad RMS
SciTegic.value.DoubleValue
0.000000

@<SCITEGIC>MOL_PROPERTY
U
SciTegic.value.DoubleValue
5.779

@<SCITEGIC>MOL_PROPERTY
W
SciTegic.value.DoubleValue
-60.230

@<SCITEGIC>MOL_PROPERTY
W(PB)
SciTegic.value.DoubleValue
-62.557

@<SCITEGIC>MOL_PROPERTY
W(SA)
SciTegic.value.DoubleValue
2.328

@<SCITEGIC>MOL_PROPERTY
Valence
SciTegic.value.DoubleValue
7.101

@<SCITEGIC>MOL_PROPERTY
Coulomb
SciTegic.value.DoubleValue
-2.079

@<SCITEGIC>MOL_PROPERTY
VdW
SciTegic.value.DoubleValue
0.757

@<SCITEGIC>MOL_PROPERTY
VdW6
SciTegic.value.DoubleValue
-6.496

@<SCITEGIC>MOL_PROPERTY
VdW12
SciTegic.value.DoubleValue
7.253

@<SCITEGIC>MOL_PROPERTY
Bond
SciTegic.value.DoubleValue
0.100

@<SCITEGIC>MOL_PROPERTY
Angle
SciTegic.value.DoubleValue
2.262

@<SCITEGIC>MOL_PROPERTY
Pdih
SciTegic.value.DoubleValue
4.738

@<SCITEGIC>MOL_PROPERTY
Idih
SciTegic.value.DoubleValue
0.001

@<SCITEGIC>MOL_PROPERTY
Tether
SciTegic.value.DoubleValue
0.000

@<TRIPOS>MOLECULE
guest-s21_confgen4.mol2 : confsearch ligand conformer 83
          22          21           1
SMALL
USER_CHARGES
 
@<TRIPOS>ATOM
       1    C1      19.639523   15.202863   21.153097 C.2        1 MOL1         0.6145
       2    O1      20.156088   14.452552   21.957240 O.co2      1 MOL1        -0.6735
       3    O2      18.734196   14.875089   20.411879 O.co2      1 MOL1        -0.6735
       4    C2      20.140835   16.641009   21.085041 C.3        1 MOL1        -0.1985
       5    H1      20.040178   16.988371   20.049738 H          1 MOL1         0.0740
       6    H2      21.211094   16.640456   21.324213 H          1 MOL1         0.0740
       7    C3      19.379514   17.589728   22.043412 C.3        1 MOL1        -0.1882
       8    H3      18.308305   17.568413   21.799345 H          1 MOL1         0.0742
       9    H4      19.479465   17.221467   23.073919 H          1 MOL1         0.0742
      10    C4      19.905557   19.038842   21.955714 C.3        1 MOL1        -0.1880
      11    H5      19.802469   19.405002   20.925105 H          1 MOL1         0.0742
      12    H6      20.977108   19.047612   22.194184 H          1 MOL1         0.0742
      13    C5      19.144896   19.981084   22.916877 C.3        1 MOL1        -0.1880
      14    H7      18.068089   19.907201   22.712035 H          1 MOL1         0.0742
      15    H8      19.288034   19.646732   23.953532 H          1 MOL1         0.0742
      16    C6      19.568371   21.462795   22.788397 C.3        1 MOL1        -0.1856
      17    H9      18.903849   22.074729   23.413844 H          1 MOL1         0.0742
      18    H10     19.420631   21.802672   21.754005 H          1 MOL1         0.0742
      19    C7      21.029518   21.720321   23.216110 C.3        1 MOL1        -0.2871
      20    H11     21.252762   22.794793   23.191772 H          1 MOL1         0.0754
      21    H12     21.737894   21.219000   22.544854 H          1 MOL1         0.0754
      22    H13     21.209047   21.360915   24.237741 H          1 MOL1         0.0754
@<TRIPOS>BOND
    1     1     2    1
    2     1     3    2
    3     1     4    1
    4     4     5    1
    5     4     6    1
    6     4     7    1
    7     7     8    1
    8     7     9    1
    9     7    10    1
   10    10    11    1
   11    10    12    1
   12    10    13    1
   13    13    14    1
   14    13    15    1
   15    13    16    1
   16    16    17    1
   17    16    18    1
   18    16    19    1
   19    19    20    1
   20    19    21    1
   21    19    22    1
@<TRIPOS>SUBSTRUCTURE
       1 MOL1            1 RESIDUE      1      MOL     
@<SCITEGIC>MOL_PROPERTY
VConf Rank
SciTegic.value.IntegerValue
83

@<SCITEGIC>MOL_PROPERTY
Conf_Id
SciTegic.value.IntegerValue
37

@<SCITEGIC>MOL_PROPERTY
Delta U+W
SciTegic.value.DoubleValue
-0.345

@<SCITEGIC>MOL_PROPERTY
U+W
SciTegic.value.DoubleValue
-53.504

@<SCITEGIC>MOL_PROPERTY
Grad RMS
SciTegic.value.DoubleValue
0.000000

@<SCITEGIC>MOL_PROPERTY
U
SciTegic.value.DoubleValue
6.751

@<SCITEGIC>MOL_PROPERTY
W
SciTegic.value.DoubleValue
-60.255

@<SCITEGIC>MOL_PROPERTY
W(PB)
SciTegic.value.DoubleValue
-62.592

@<SCITEGIC>MOL_PROPERTY
W(SA)
SciTegic.value.DoubleValue
2.336

@<SCITEGIC>MOL_PROPERTY
Valence
SciTegic.value.DoubleValue
7.602

@<SCITEGIC>MOL_PROPERTY
Coulomb
SciTegic.value.DoubleValue
-1.744

@<SCITEGIC>MOL_PROPERTY
VdW
SciTegic.value.DoubleValue
0.894

@<SCITEGIC>MOL_PROPERTY
VdW6
SciTegic.value.DoubleValue
-7.110

@<SCITEGIC>MOL_PROPERTY
VdW12
SciTegic.value.DoubleValue
8.004

@<SCITEGIC>MOL_PROPERTY
Bond
SciTegic.value.DoubleValue
0.131

@<SCITEGIC>MOL_PROPERTY
Angle
SciTegic.value.DoubleValue
2.489

@<SCITEGIC>MOL_PROPERTY
Pdih
SciTegic.value.DoubleValue
4.982

@<SCITEGIC>MOL_PROPERTY
Idih
SciTegic.value.DoubleValue
0.001

@<SCITEGIC>MOL_PROPERTY
Tether
SciTegic.value.DoubleValue
0.000

@<TRIPOS>MOLECULE
guest-s21_confgen4.mol2 : confsearch ligand conformer 84
          22          21           1
SMALL
USER_CHARGES
 
@<TRIPOS>ATOM
       1    C1      22.742590   17.518796   24.275661 C.2        1 MOL1         0.6145
       2    O1      22.703865   16.306231   24.343767 O.co2      1 MOL1        -0.6735
       3    O2      23.265229   18.223722   25.116128 O.co2      1 MOL1        -0.6735
       4    C2      22.079796   18.194293   23.080413 C.3        1 MOL1        -0.1985
       5    H1      22.177673   17.527927   22.214945 H          1 MOL1         0.0740
       6    H2      22.640935   19.108163   22.851042 H          1 MOL1         0.0740
       7    C3      20.588962   18.531027   23.329772 C.3        1 MOL1        -0.1882
       8    H3      20.043582   17.607804   23.570122 H          1 MOL1         0.0742
       9    H4      20.507428   19.187512   24.207206 H          1 MOL1         0.0742
      10    C4      19.941282   19.213924   22.105635 C.3        1 MOL1        -0.1880
      11    H5      20.034674   18.553248   21.233882 H          1 MOL1         0.0742
      12    H6      20.487081   20.137511   21.869106 H          1 MOL1         0.0742
      13    C5      18.452247   19.544463   22.358186 C.3        1 MOL1        -0.1880
      14    H7      17.893609   18.617104   22.544910 H          1 MOL1         0.0742
      15    H8      18.370052   20.146789   23.273272 H          1 MOL1         0.0742
      16    C6      17.789694   20.322341   21.197479 C.3        1 MOL1        -0.1856
      17    H9      18.342051   21.253908   21.012020 H          1 MOL1         0.0742
      18    H10     16.776952   20.618077   21.504285 H          1 MOL1         0.0742
      19    C7      17.694299   19.505982   19.890319 C.3        1 MOL1        -0.2871
      20    H11     17.171623   18.555290   20.058038 H          1 MOL1         0.0754
      21    H12     18.688488   19.285428   19.482093 H          1 MOL1         0.0754
      22    H13     17.139114   20.066806   19.127321 H          1 MOL1         0.0754
@<TRIPOS>BOND
    1     1     2    1
    2     1     3    2
    3     1     4    1
    4     4     5    1
    5     4     6    1
    6     4     7    1
    7     7     8    1
    8     7     9    1
    9     7    10    1
   10    10    11    1
   11    10    12    1
   12    10    13    1
   13    13    14    1
   14    13    15    1
   15    13    16    1
   16    16    17    1
   17    16    18    1
   18    16    19    1
   19    19    20    1
   20    19    21    1
   21    19    22    1
@<TRIPOS>SUBSTRUCTURE
       1 MOL1            1 RESIDUE      1      MOL     
@<SCITEGIC>MOL_PROPERTY
VConf Rank
SciTegic.value.IntegerValue
84

@<SCITEGIC>MOL_PROPERTY
Conf_Id
SciTegic.value.IntegerValue
38

@<SCITEGIC>MOL_PROPERTY
Delta U+W
SciTegic.value.DoubleValue
-0.439

@<SCITEGIC>MOL_PROPERTY
U+W
SciTegic.value.DoubleValue
-53.598

@<SCITEGIC>MOL_PROPERTY
Grad RMS
SciTegic.value.DoubleValue
0.000000

@<SCITEGIC>MOL_PROPERTY
U
SciTegic.value.DoubleValue
6.751

@<SCITEGIC>MOL_PROPERTY
W
SciTegic.value.DoubleValue
-60.350

@<SCITEGIC>MOL_PROPERTY
W(PB)
SciTegic.value.DoubleValue
-62.659

@<SCITEGIC>MOL_PROPERTY
W(SA)
SciTegic.value.DoubleValue
2.309

@<SCITEGIC>MOL_PROPERTY
Valence
SciTegic.value.DoubleValue
7.602

@<SCITEGIC>MOL_PROPERTY
Coulomb
SciTegic.value.DoubleValue
-1.744

@<SCITEGIC>MOL_PROPERTY
VdW
SciTegic.value.DoubleValue
0.893

@<SCITEGIC>MOL_PROPERTY
VdW6
SciTegic.value.DoubleValue
-7.110

@<SCITEGIC>MOL_PROPERTY
VdW12
SciTegic.value.DoubleValue
8.004

@<SCITEGIC>MOL_PROPERTY
Bond
SciTegic.value.DoubleValue
0.131

@<SCITEGIC>MOL_PROPERTY
Angle
SciTegic.value.DoubleValue
2.489

@<SCITEGIC>MOL_PROPERTY
Pdih
SciTegic.value.DoubleValue
4.981

@<SCITEGIC>MOL_PROPERTY
Idih
SciTegic.value.DoubleValue
0.001

@<SCITEGIC>MOL_PROPERTY
Tether
SciTegic.value.DoubleValue
0.000

@<TRIPOS>MOLECULE
guest-s21_confgen4.mol2 : confsearch ligand conformer 85
          22          21           1
SMALL
USER_CHARGES
 
@<TRIPOS>ATOM
       1    C1      16.954297   21.262597   21.418120 C.2        1 MOL1         0.6145
       2    O1      15.861745   20.852173   21.079825 O.co2      1 MOL1        -0.6735
       3    O2      17.347931   22.390323   21.194920 O.co2      1 MOL1        -0.6735
       4    C2      17.891360   20.302669   22.142510 C.3        1 MOL1        -0.1985
       5    H1      17.279254   19.613055   22.735954 H          1 MOL1         0.0740
       6    H2      18.492350   20.891230   22.844555 H          1 MOL1         0.0740
       7    C3      18.803491   19.508313   21.171621 C.3        1 MOL1        -0.1882
       8    H3      18.170643   19.010359   20.423962 H          1 MOL1         0.0742
       9    H4      19.446633   20.206012   20.617655 H          1 MOL1         0.0742
      10    C4      19.674304   18.438482   21.872952 C.3        1 MOL1        -0.1880
      11    H5      20.169609   17.841800   21.096439 H          1 MOL1         0.0742
      12    H6      19.028965   17.747791   22.432552 H          1 MOL1         0.0742
      13    C5      20.742659   19.038752   22.819692 C.3        1 MOL1        -0.1880
      14    H7      21.386797   19.730786   22.260338 H          1 MOL1         0.0742
      15    H8      20.248571   19.633214   23.598520 H          1 MOL1         0.0742
      16    C6      21.615632   17.969287   23.517028 C.3        1 MOL1        -0.1856
      17    H9      20.974053   17.268096   24.068391 H          1 MOL1         0.0742
      18    H10     22.247550   18.465761   24.266319 H          1 MOL1         0.0742
      19    C7      22.524451   17.187793   22.543392 C.3        1 MOL1        -0.2871
      20    H11     21.936401   16.575859   21.848295 H          1 MOL1         0.0754
      21    H12     23.189298   16.512875   23.097813 H          1 MOL1         0.0754
      22    H13     23.150963   17.871610   21.956024 H          1 MOL1         0.0754
@<TRIPOS>BOND
    1     1     2    1
    2     1     3    2
    3     1     4    1
    4     4     5    1
    5     4     6    1
    6     4     7    1
    7     7     8    1
    8     7     9    1
    9     7    10    1
   10    10    11    1
   11    10    12    1
   12    10    13    1
   13    13    14    1
   14    13    15    1
   15    13    16    1
   16    16    17    1
   17    16    18    1
   18    16    19    1
   19    19    20    1
   20    19    21    1
   21    19    22    1
@<TRIPOS>SUBSTRUCTURE
       1 MOL1            1 RESIDUE      1      MOL     
@<SCITEGIC>MOL_PROPERTY
VConf Rank
SciTegic.value.IntegerValue
85

@<SCITEGIC>MOL_PROPERTY
Conf_Id
SciTegic.value.IntegerValue
60

@<SCITEGIC>MOL_PROPERTY
Delta U+W
SciTegic.value.DoubleValue
0.386

@<SCITEGIC>MOL_PROPERTY
U+W
SciTegic.value.DoubleValue
-52.773

@<SCITEGIC>MOL_PROPERTY
Grad RMS
SciTegic.value.DoubleValue
0.000000

@<SCITEGIC>MOL_PROPERTY
U
SciTegic.value.DoubleValue
7.689

@<SCITEGIC>MOL_PROPERTY
W
SciTegic.value.DoubleValue
-60.463

@<SCITEGIC>MOL_PROPERTY
W(PB)
SciTegic.value.DoubleValue
-62.772

@<SCITEGIC>MOL_PROPERTY
W(SA)
SciTegic.value.DoubleValue
2.309

@<SCITEGIC>MOL_PROPERTY
Valence
SciTegic.value.DoubleValue
8.197

@<SCITEGIC>MOL_PROPERTY
Coulomb
SciTegic.value.DoubleValue
-1.561

@<SCITEGIC>MOL_PROPERTY
VdW
SciTegic.value.DoubleValue
1.053

@<SCITEGIC>MOL_PROPERTY
VdW6
SciTegic.value.DoubleValue
-7.737

@<SCITEGIC>MOL_PROPERTY
VdW12
SciTegic.value.DoubleValue
8.790

@<SCITEGIC>MOL_PROPERTY
Bond
SciTegic.value.DoubleValue
0.181

@<SCITEGIC>MOL_PROPERTY
Angle
SciTegic.value.DoubleValue
2.780

@<SCITEGIC>MOL_PROPERTY
Pdih
SciTegic.value.DoubleValue
5.235

@<SCITEGIC>MOL_PROPERTY
Idih
SciTegic.value.DoubleValue
0.001

@<SCITEGIC>MOL_PROPERTY
Tether
SciTegic.value.DoubleValue
0.000

@<TRIPOS>MOLECULE
guest-s21_confgen4.mol2 : confsearch ligand conformer 86
          22          21           1
SMALL
USER_CHARGES
 
@<TRIPOS>ATOM
       1    C1      19.706781   15.813686   20.124066 C.2        1 MOL1         0.6145
       2    O1      19.947143   14.838724   20.808323 O.co2      1 MOL1        -0.6735
       3    O2      19.773456   15.816990   18.910763 O.co2      1 MOL1        -0.6735
       4    C2      19.322339   17.110459   20.827539 C.3        1 MOL1        -0.1985
       5    H1      18.764092   16.844996   21.732166 H          1 MOL1         0.0740
       6    H2      18.637938   17.662601   20.172444 H          1 MOL1         0.0740
       7    C3      20.551345   17.988733   21.179383 C.3        1 MOL1        -0.1882
       8    H3      21.205300   17.444393   21.874603 H          1 MOL1         0.0742
       9    H4      21.138914   18.152330   20.265356 H          1 MOL1         0.0742
      10    C4      20.179272   19.365369   21.780345 C.3        1 MOL1        -0.1880
      11    H5      19.519006   19.903386   21.086620 H          1 MOL1         0.0742
      12    H6      21.098028   19.960200   21.860289 H          1 MOL1         0.0742
      13    C5      19.507257   19.267835   23.172071 C.3        1 MOL1        -0.1880
      14    H7      18.586689   18.675906   23.092989 H          1 MOL1         0.0742
      15    H8      20.166822   18.728136   23.865181 H          1 MOL1         0.0742
      16    C6      19.139699   20.644192   23.774280 C.3        1 MOL1        -0.1856
      17    H9      18.550211   20.481985   24.687208 H          1 MOL1         0.0742
      18    H10     18.489136   21.192082   23.078667 H          1 MOL1         0.0742
      19    C7      20.369689   21.508674   24.127053 C.3        1 MOL1        -0.2871
      20    H11     21.052127   20.967126   24.794982 H          1 MOL1         0.0754
      21    H12     20.057630   22.429117   24.637270 H          1 MOL1         0.0754
      22    H13     20.926577   21.800962   23.228238 H          1 MOL1         0.0754
@<TRIPOS>BOND
    1     1     2    1
    2     1     3    2
    3     1     4    1
    4     4     5    1
    5     4     6    1
    6     4     7    1
    7     7     8    1
    8     7     9    1
    9     7    10    1
   10    10    11    1
   11    10    12    1
   12    10    13    1
   13    13    14    1
   14    13    15    1
   15    13    16    1
   16    16    17    1
   17    16    18    1
   18    16    19    1
   19    19    20    1
   20    19    21    1
   21    19    22    1
@<TRIPOS>SUBSTRUCTURE
       1 MOL1            1 RESIDUE      1      MOL     
@<SCITEGIC>MOL_PROPERTY
VConf Rank
SciTegic.value.IntegerValue
86

@<SCITEGIC>MOL_PROPERTY
Conf_Id
SciTegic.value.IntegerValue
28

@<SCITEGIC>MOL_PROPERTY
Delta U+W
SciTegic.value.DoubleValue
0.351

@<SCITEGIC>MOL_PROPERTY
U+W
SciTegic.value.DoubleValue
-52.808

@<SCITEGIC>MOL_PROPERTY
Grad RMS
SciTegic.value.DoubleValue
0.000000

@<SCITEGIC>MOL_PROPERTY
U
SciTegic.value.DoubleValue
7.689

@<SCITEGIC>MOL_PROPERTY
W
SciTegic.value.DoubleValue
-60.498

@<SCITEGIC>MOL_PROPERTY
W(PB)
SciTegic.value.DoubleValue
-62.768

@<SCITEGIC>MOL_PROPERTY
W(SA)
SciTegic.value.DoubleValue
2.270

@<SCITEGIC>MOL_PROPERTY
Valence
SciTegic.value.DoubleValue
8.197

@<SCITEGIC>MOL_PROPERTY
Coulomb
SciTegic.value.DoubleValue
-1.561

@<SCITEGIC>MOL_PROPERTY
VdW
SciTegic.value.DoubleValue
1.053

@<SCITEGIC>MOL_PROPERTY
VdW6
SciTegic.value.DoubleValue
-7.737

@<SCITEGIC>MOL_PROPERTY
VdW12
SciTegic.value.DoubleValue
8.791

@<SCITEGIC>MOL_PROPERTY
Bond
SciTegic.value.DoubleValue
0.181

@<SCITEGIC>MOL_PROPERTY
Angle
SciTegic.value.DoubleValue
2.780

@<SCITEGIC>MOL_PROPERTY
Pdih
SciTegic.value.DoubleValue
5.235

@<SCITEGIC>MOL_PROPERTY
Idih
SciTegic.value.DoubleValue
0.001

@<SCITEGIC>MOL_PROPERTY
Tether
SciTegic.value.DoubleValue
0.000

@<TRIPOS>MOLECULE
guest-s21_confgen4.mol2 : confsearch ligand conformer 87
          22          21           1
SMALL
USER_CHARGES
 
@<TRIPOS>ATOM
       1    C1      19.267836   15.499034   23.691616 C.2        1 MOL1         0.6145
       2    O1      18.983194   14.617320   22.905466 O.co2      1 MOL1        -0.6735
       3    O2      20.025423   15.345992   24.629216 O.co2      1 MOL1        -0.6735
       4    C2      18.656048   16.879053   23.478110 C.3        1 MOL1        -0.1985
       5    H1      18.519502   17.347001   24.460469 H          1 MOL1         0.0740
       6    H2      17.659188   16.745635   23.040976 H          1 MOL1         0.0740
       7    C3      19.521701   17.786894   22.569951 C.3        1 MOL1        -0.1882
       8    H3      20.519016   17.888555   23.017720 H          1 MOL1         0.0742
       9    H4      19.656489   17.300593   21.593914 H          1 MOL1         0.0742
      10    C4      18.880678   19.180426   22.374452 C.3        1 MOL1        -0.1880
      11    H5      18.794296   19.688297   23.344810 H          1 MOL1         0.0742
      12    H6      17.856417   19.052485   21.998311 H          1 MOL1         0.0742
      13    C5      19.656379   20.082341   21.385312 C.3        1 MOL1        -0.1880
      14    H7      19.739465   19.576555   20.413607 H          1 MOL1         0.0742
      15    H8      19.068582   20.994037   21.211442 H          1 MOL1         0.0742
      16    C6      21.062683   20.480812   21.887129 C.3        1 MOL1        -0.1856
      17    H9      21.693610   19.588607   21.993241 H          1 MOL1         0.0742
      18    H10     20.984915   20.939215   22.882632 H          1 MOL1         0.0742
      19    C7      21.748874   21.467706   20.921265 C.3        1 MOL1        -0.2871
      20    H11     21.163263   22.390889   20.820528 H          1 MOL1         0.0754
      21    H12     21.864345   21.024115   19.923628 H          1 MOL1         0.0754
      22    H13     22.746992   21.738328   21.289494 H          1 MOL1         0.0754
@<TRIPOS>BOND
    1     1     2    1
    2     1     3    2
    3     1     4    1
    4     4     5    1
    5     4     6    1
    6     4     7    1
    7     7     8    1
    8     7     9    1
    9     7    10    1
   10    10    11    1
   11    10    12    1
   12    10    13    1
   13    13    14    1
   14    13    15    1
   15    13    16    1
   16    16    17    1
   17    16    18    1
   18    16    19    1
   19    19    20    1
   20    19    21    1
   21    19    22    1
@<TRIPOS>SUBSTRUCTURE
       1 MOL1            1 RESIDUE      1      MOL     
@<SCITEGIC>MOL_PROPERTY
VConf Rank
SciTegic.value.IntegerValue
87

@<SCITEGIC>MOL_PROPERTY
Conf_Id
SciTegic.value.IntegerValue
50

@<SCITEGIC>MOL_PROPERTY
Delta U+W
SciTegic.value.DoubleValue
-0.486

@<SCITEGIC>MOL_PROPERTY
U+W
SciTegic.value.DoubleValue
-53.646

@<SCITEGIC>MOL_PROPERTY
Grad RMS
SciTegic.value.DoubleValue
0.000000

@<SCITEGIC>MOL_PROPERTY
U
SciTegic.value.DoubleValue
7.026

@<SCITEGIC>MOL_PROPERTY
W
SciTegic.value.DoubleValue
-60.672

@<SCITEGIC>MOL_PROPERTY
W(PB)
SciTegic.value.DoubleValue
-62.964

@<SCITEGIC>MOL_PROPERTY
W(SA)
SciTegic.value.DoubleValue
2.292

@<SCITEGIC>MOL_PROPERTY
Valence
SciTegic.value.DoubleValue
7.637

@<SCITEGIC>MOL_PROPERTY
Coulomb
SciTegic.value.DoubleValue
-1.488

@<SCITEGIC>MOL_PROPERTY
VdW
SciTegic.value.DoubleValue
0.877

@<SCITEGIC>MOL_PROPERTY
VdW6
SciTegic.value.DoubleValue
-7.165

@<SCITEGIC>MOL_PROPERTY
VdW12
SciTegic.value.DoubleValue
8.043

@<SCITEGIC>MOL_PROPERTY
Bond
SciTegic.value.DoubleValue
0.134

@<SCITEGIC>MOL_PROPERTY
Angle
SciTegic.value.DoubleValue
2.513

@<SCITEGIC>MOL_PROPERTY
Pdih
SciTegic.value.DoubleValue
4.990

@<SCITEGIC>MOL_PROPERTY
Idih
SciTegic.value.DoubleValue
0.001

@<SCITEGIC>MOL_PROPERTY
Tether
SciTegic.value.DoubleValue
0.000

@<TRIPOS>MOLECULE
guest-s21_confgen4.mol2 : confsearch ligand conformer 88
          22          21           1
SMALL
USER_CHARGES
 
@<TRIPOS>ATOM
       1    C1      18.090198   16.433600   24.393687 C.2        1 MOL1         0.6145
       2    O1      18.753784   15.459605   24.689421 O.co2      1 MOL1        -0.6735
       3    O2      16.922393   16.377125   24.062784 O.co2      1 MOL1        -0.6735
       4    C2      18.765958   17.799985   24.419520 C.3        1 MOL1        -0.1985
       5    H1      19.521410   17.791213   25.214398 H          1 MOL1         0.0740
       6    H2      18.012736   18.547520   24.696102 H          1 MOL1         0.0740
       7    C3      19.417803   18.174476   23.065580 C.3        1 MOL1        -0.1882
       8    H3      20.162588   17.412070   22.798490 H          1 MOL1         0.0742
       9    H4      18.646839   18.156874   22.284059 H          1 MOL1         0.0742
      10    C4      20.091120   19.565474   23.118818 C.3        1 MOL1        -0.1880
      11    H5      20.802963   19.585584   23.955381 H          1 MOL1         0.0742
      12    H6      19.336750   20.334628   23.334030 H          1 MOL1         0.0742
      13    C5      20.849746   19.933031   21.821532 C.3        1 MOL1        -0.1880
      14    H7      21.396771   20.870373   21.992060 H          1 MOL1         0.0742
      15    H8      21.606917   19.166175   21.608095 H          1 MOL1         0.0742
      16    C6      19.925533   20.108087   20.595369 C.3        1 MOL1        -0.1856
      17    H9      19.136254   20.836478   20.827082 H          1 MOL1         0.0742
      18    H10     19.426778   19.159089   20.358715 H          1 MOL1         0.0742
      19    C7      20.712758   20.582728   19.357342 C.3        1 MOL1        -0.2871
      20    H11     21.492104   19.858402   19.086495 H          1 MOL1         0.0754
      21    H12     21.194770   21.551098   19.545173 H          1 MOL1         0.0754
      22    H13     20.043695   20.699142   18.494863 H          1 MOL1         0.0754
@<TRIPOS>BOND
    1     1     2    1
    2     1     3    2
    3     1     4    1
    4     4     5    1
    5     4     6    1
    6     4     7    1
    7     7     8    1
    8     7     9    1
    9     7    10    1
   10    10    11    1
   11    10    12    1
   12    10    13    1
   13    13    14    1
   14    13    15    1
   15    13    16    1
   16    16    17    1
   17    16    18    1
   18    16    19    1
   19    19    20    1
   20    19    21    1
   21    19    22    1
@<TRIPOS>SUBSTRUCTURE
       1 MOL1            1 RESIDUE      1      MOL     
@<SCITEGIC>MOL_PROPERTY
VConf Rank
SciTegic.value.IntegerValue
88

@<SCITEGIC>MOL_PROPERTY
Conf_Id
SciTegic.value.IntegerValue
51

@<SCITEGIC>MOL_PROPERTY
Delta U+W
SciTegic.value.DoubleValue
-0.517

@<SCITEGIC>MOL_PROPERTY
U+W
SciTegic.value.DoubleValue
-53.677

@<SCITEGIC>MOL_PROPERTY
Grad RMS
SciTegic.value.DoubleValue
0.000000

@<SCITEGIC>MOL_PROPERTY
U
SciTegic.value.DoubleValue
7.026

@<SCITEGIC>MOL_PROPERTY
W
SciTegic.value.DoubleValue
-60.703

@<SCITEGIC>MOL_PROPERTY
W(PB)
SciTegic.value.DoubleValue
-63.007

@<SCITEGIC>MOL_PROPERTY
W(SA)
SciTegic.value.DoubleValue
2.304

@<SCITEGIC>MOL_PROPERTY
Valence
SciTegic.value.DoubleValue
7.638

@<SCITEGIC>MOL_PROPERTY
Coulomb
SciTegic.value.DoubleValue
-1.488

@<SCITEGIC>MOL_PROPERTY
VdW
SciTegic.value.DoubleValue
0.877

@<SCITEGIC>MOL_PROPERTY
VdW6
SciTegic.value.DoubleValue
-7.165

@<SCITEGIC>MOL_PROPERTY
VdW12
SciTegic.value.DoubleValue
8.042

@<SCITEGIC>MOL_PROPERTY
Bond
SciTegic.value.DoubleValue
0.134

@<SCITEGIC>MOL_PROPERTY
Angle
SciTegic.value.DoubleValue
2.513

@<SCITEGIC>MOL_PROPERTY
Pdih
SciTegic.value.DoubleValue
4.990

@<SCITEGIC>MOL_PROPERTY
Idih
SciTegic.value.DoubleValue
0.001

@<SCITEGIC>MOL_PROPERTY
Tether
SciTegic.value.DoubleValue
0.000

@<TRIPOS>MOLECULE
guest-s21_confgen4.mol2 : confsearch ligand conformer 89
          22          21           1
SMALL
USER_CHARGES
 
@<TRIPOS>ATOM
       1    C1      20.062734   19.801006   25.696276 C.2        1 MOL1         0.6145
       2    O1      19.247978   20.658670   25.974637 O.co2      1 MOL1        -0.6735
       3    O2      20.066316   18.691108   26.191155 O.co2      1 MOL1        -0.6735
       4    C2      21.151401   20.145165   24.683611 C.3        1 MOL1        -0.1985
       5    H1      21.975100   19.430135   24.798319 H          1 MOL1         0.0740
       6    H2      21.547987   21.131693   24.951052 H          1 MOL1         0.0740
       7    C3      20.660869   20.165536   23.212572 C.3        1 MOL1        -0.1882
       8    H3      19.818176   20.864733   23.119592 H          1 MOL1         0.0742
       9    H4      21.465745   20.553763   22.573826 H          1 MOL1         0.0742
      10    C4      20.239145   18.767490   22.707395 C.3        1 MOL1        -0.1880
      11    H5      19.422064   18.379462   23.331270 H          1 MOL1         0.0742
      12    H6      21.080627   18.069338   22.814667 H          1 MOL1         0.0742
      13    C5      19.784587   18.805665   21.232481 C.3        1 MOL1        -0.1880
      14    H7      18.943085   19.503985   21.126039 H          1 MOL1         0.0742
      15    H8      20.600999   19.190672   20.606144 H          1 MOL1         0.0742
      16    C6      19.362534   17.409987   20.727505 C.3        1 MOL1        -0.1856
      17    H9      18.544662   17.022363   21.350671 H          1 MOL1         0.0742
      18    H10     20.202427   16.709020   20.830883 H          1 MOL1         0.0742
      19    C7      18.908653   17.452149   19.254559 C.3        1 MOL1        -0.2871
      20    H11     18.048476   18.122522   19.127682 H          1 MOL1         0.0754
      21    H12     18.612322   16.452089   18.912284 H          1 MOL1         0.0754
      22    H13     19.718745   17.806874   18.603932 H          1 MOL1         0.0754
@<TRIPOS>BOND
    1     1     2    1
    2     1     3    2
    3     1     4    1
    4     4     5    1
    5     4     6    1
    6     4     7    1
    7     7     8    1
    8     7     9    1
    9     7    10    1
   10    10    11    1
   11    10    12    1
   12    10    13    1
   13    13    14    1
   14    13    15    1
   15    13    16    1
   16    16    17    1
   17    16    18    1
   18    16    19    1
   19    19    20    1
   20    19    21    1
   21    19    22    1
@<TRIPOS>SUBSTRUCTURE
       1 MOL1            1 RESIDUE      1      MOL     
@<SCITEGIC>MOL_PROPERTY
VConf Rank
SciTegic.value.IntegerValue
89

@<SCITEGIC>MOL_PROPERTY
Conf_Id
SciTegic.value.IntegerValue
43

@<SCITEGIC>MOL_PROPERTY
Delta U+W
SciTegic.value.DoubleValue
-0.129

@<SCITEGIC>MOL_PROPERTY
U+W
SciTegic.value.DoubleValue
-53.289

@<SCITEGIC>MOL_PROPERTY
Grad RMS
SciTegic.value.DoubleValue
0.000000

@<SCITEGIC>MOL_PROPERTY
U
SciTegic.value.DoubleValue
7.937

@<SCITEGIC>MOL_PROPERTY
W
SciTegic.value.DoubleValue
-61.225

@<SCITEGIC>MOL_PROPERTY
W(PB)
SciTegic.value.DoubleValue
-63.523

@<SCITEGIC>MOL_PROPERTY
W(SA)
SciTegic.value.DoubleValue
2.297

@<SCITEGIC>MOL_PROPERTY
Valence
SciTegic.value.DoubleValue
7.358

@<SCITEGIC>MOL_PROPERTY
Coulomb
SciTegic.value.DoubleValue
-0.022

@<SCITEGIC>MOL_PROPERTY
VdW
SciTegic.value.DoubleValue
0.601

@<SCITEGIC>MOL_PROPERTY
VdW6
SciTegic.value.DoubleValue
-7.363

@<SCITEGIC>MOL_PROPERTY
VdW12
SciTegic.value.DoubleValue
7.964

@<SCITEGIC>MOL_PROPERTY
Bond
SciTegic.value.DoubleValue
0.121

@<SCITEGIC>MOL_PROPERTY
Angle
SciTegic.value.DoubleValue
2.425

@<SCITEGIC>MOL_PROPERTY
Pdih
SciTegic.value.DoubleValue
4.811

@<SCITEGIC>MOL_PROPERTY
Idih
SciTegic.value.DoubleValue
0.000

@<SCITEGIC>MOL_PROPERTY
Tether
SciTegic.value.DoubleValue
0.000

@<TRIPOS>MOLECULE
guest-s21_confgen4.mol2 : confsearch ligand conformer 90
          22          21           1
SMALL
USER_CHARGES
 
@<TRIPOS>ATOM
       1    C1      17.444605   20.169603   24.746612 C.2        1 MOL1         0.6145
       2    O1      17.450252   19.488729   25.753230 O.co2      1 MOL1        -0.6735
       3    O2      16.472005   20.302501   24.030246 O.co2      1 MOL1        -0.6735
       4    C2      18.724737   20.912114   24.373692 C.3        1 MOL1        -0.1985
       5    H1      19.106336   21.386212   25.285642 H          1 MOL1         0.0740
       6    H2      18.470438   21.720941   23.677966 H          1 MOL1         0.0740
       7    C3      19.824395   20.005614   23.762129 C.3        1 MOL1        -0.1882
       8    H3      20.748518   20.589533   23.654530 H          1 MOL1         0.0742
       9    H4      20.048023   19.184908   24.457892 H          1 MOL1         0.0742
      10    C4      19.422406   19.429974   22.385673 C.3        1 MOL1        -0.1880
      11    H5      19.187255   20.253800   21.697901 H          1 MOL1         0.0742
      12    H6      18.507585   18.829989   22.488278 H          1 MOL1         0.0742
      13    C5      20.543284   18.556923   21.781626 C.3        1 MOL1        -0.1880
      14    H7      21.458430   19.155483   21.675354 H          1 MOL1         0.0742
      15    H8      20.777823   17.733321   22.469942 H          1 MOL1         0.0742
      16    C6      20.142257   17.981076   20.407352 C.3        1 MOL1        -0.1856
      17    H9      19.908481   18.802186   19.715551 H          1 MOL1         0.0742
      18    H10     19.228032   17.380125   20.510085 H          1 MOL1         0.0742
      19    C7      21.263718   17.109335   19.807560 C.3        1 MOL1        -0.2871
      20    H11     22.181837   17.694143   19.664545 H          1 MOL1         0.0754
      21    H12     20.961763   16.708355   18.831279 H          1 MOL1         0.0754
      22    H13     21.496208   16.261370   20.465059 H          1 MOL1         0.0754
@<TRIPOS>BOND
    1     1     2    1
    2     1     3    2
    3     1     4    1
    4     4     5    1
    5     4     6    1
    6     4     7    1
    7     7     8    1
    8     7     9    1
    9     7    10    1
   10    10    11    1
   11    10    12    1
   12    10    13    1
   13    13    14    1
   14    13    15    1
   15    13    16    1
   16    16    17    1
   17    16    18    1
   18    16    19    1
   19    19    20    1
   20    19    21    1
   21    19    22    1
@<TRIPOS>SUBSTRUCTURE
       1 MOL1            1 RESIDUE      1      MOL     
@<SCITEGIC>MOL_PROPERTY
VConf Rank
SciTegic.value.IntegerValue
90

@<SCITEGIC>MOL_PROPERTY
Conf_Id
SciTegic.value.IntegerValue
44

@<SCITEGIC>MOL_PROPERTY
Delta U+W
SciTegic.value.DoubleValue
-0.155

@<SCITEGIC>MOL_PROPERTY
U+W
SciTegic.value.DoubleValue
-53.314

@<SCITEGIC>MOL_PROPERTY
Grad RMS
SciTegic.value.DoubleValue
0.000000

@<SCITEGIC>MOL_PROPERTY
U
SciTegic.value.DoubleValue
7.937

@<SCITEGIC>MOL_PROPERTY
W
SciTegic.value.DoubleValue
-61.252

@<SCITEGIC>MOL_PROPERTY
W(PB)
SciTegic.value.DoubleValue
-63.556

@<SCITEGIC>MOL_PROPERTY
W(SA)
SciTegic.value.DoubleValue
2.304

@<SCITEGIC>MOL_PROPERTY
Valence
SciTegic.value.DoubleValue
7.358

@<SCITEGIC>MOL_PROPERTY
Coulomb
SciTegic.value.DoubleValue
-0.021

@<SCITEGIC>MOL_PROPERTY
VdW
SciTegic.value.DoubleValue
0.600

@<SCITEGIC>MOL_PROPERTY
VdW6
SciTegic.value.DoubleValue
-7.363

@<SCITEGIC>MOL_PROPERTY
VdW12
SciTegic.value.DoubleValue
7.964

@<SCITEGIC>MOL_PROPERTY
Bond
SciTegic.value.DoubleValue
0.121

@<SCITEGIC>MOL_PROPERTY
Angle
SciTegic.value.DoubleValue
2.425

@<SCITEGIC>MOL_PROPERTY
Pdih
SciTegic.value.DoubleValue
4.811

@<SCITEGIC>MOL_PROPERTY
Idih
SciTegic.value.DoubleValue
0.001

@<SCITEGIC>MOL_PROPERTY
Tether
SciTegic.value.DoubleValue
0.000

@<TRIPOS>MOLECULE
guest-s21_confgen4.mol2 : confsearch ligand conformer 91
          22          21           1
SMALL
USER_CHARGES
 
@<TRIPOS>ATOM
       1    C1      21.250386   20.118162   19.298829 C.2        1 MOL1         0.6145
       2    O1      21.041353   21.298797   19.100511 O.co2      1 MOL1        -0.6735
       3    O2      21.066314   19.253581   18.464872 O.co2      1 MOL1        -0.6735
       4    C2      21.791736   19.703034   20.664083 C.3        1 MOL1        -0.1985
       5    H1      22.604066   20.394308   20.917640 H          1 MOL1         0.0740
       6    H2      22.239711   18.705879   20.575261 H          1 MOL1         0.0740
       7    C3      20.730828   19.714367   21.795441 C.3        1 MOL1        -0.1882
       8    H3      21.242689   19.556293   22.753134 H          1 MOL1         0.0742
       9    H4      20.262867   20.707302   21.845389 H          1 MOL1         0.0742
      10    C4      19.643137   18.630812   21.600378 C.3        1 MOL1        -0.1880
      11    H5      20.108337   17.635656   21.592987 H          1 MOL1         0.0742
      12    H6      19.177206   18.761352   20.614041 H          1 MOL1         0.0742
      13    C5      18.529401   18.674742   22.673451 C.3        1 MOL1        -0.1880
      14    H7      18.064622   19.670155   22.680634 H          1 MOL1         0.0742
      15    H8      17.740948   17.966263   22.384828 H          1 MOL1         0.0742
      16    C6      19.025363   18.320520   24.093653 C.3        1 MOL1        -0.1856
      17    H9      19.757285   19.063849   24.435659 H          1 MOL1         0.0742
      18    H10     19.538574   17.349191   24.075503 H          1 MOL1         0.0742
      19    C7      17.859883   18.264876   25.101769 C.3        1 MOL1        -0.2871
      20    H11     17.345078   19.232836   25.160186 H          1 MOL1         0.0754
      21    H12     18.228234   18.015714   26.105412 H          1 MOL1         0.0754
      22    H13     17.125039   17.502465   24.811785 H          1 MOL1         0.0754
@<TRIPOS>BOND
    1     1     2    1
    2     1     3    2
    3     1     4    1
    4     4     5    1
    5     4     6    1
    6     4     7    1
    7     7     8    1
    8     7     9    1
    9     7    10    1
   10    10    11    1
   11    10    12    1
   12    10    13    1
   13    13    14    1
   14    13    15    1
   15    13    16    1
   16    16    17    1
   17    16    18    1
   18    16    19    1
   19    19    20    1
   20    19    21    1
   21    19    22    1
@<TRIPOS>SUBSTRUCTURE
       1 MOL1            1 RESIDUE      1      MOL     
@<SCITEGIC>MOL_PROPERTY
VConf Rank
SciTegic.value.IntegerValue
91

@<SCITEGIC>MOL_PROPERTY
Conf_Id
SciTegic.value.IntegerValue
53

@<SCITEGIC>MOL_PROPERTY
Delta U+W
SciTegic.value.DoubleValue
0.723

@<SCITEGIC>MOL_PROPERTY
U+W
SciTegic.value.DoubleValue
-52.436

@<SCITEGIC>MOL_PROPERTY
Grad RMS
SciTegic.value.DoubleValue
0.000000

@<SCITEGIC>MOL_PROPERTY
U
SciTegic.value.DoubleValue
8.587

@<SCITEGIC>MOL_PROPERTY
W
SciTegic.value.DoubleValue
-61.022

@<SCITEGIC>MOL_PROPERTY
W(PB)
SciTegic.value.DoubleValue
-63.285

@<SCITEGIC>MOL_PROPERTY
W(SA)
SciTegic.value.DoubleValue
2.263

@<SCITEGIC>MOL_PROPERTY
Valence
SciTegic.value.DoubleValue
7.933

@<SCITEGIC>MOL_PROPERTY
Coulomb
SciTegic.value.DoubleValue
-0.124

@<SCITEGIC>MOL_PROPERTY
VdW
SciTegic.value.DoubleValue
0.778

@<SCITEGIC>MOL_PROPERTY
VdW6
SciTegic.value.DoubleValue
-7.981

@<SCITEGIC>MOL_PROPERTY
VdW12
SciTegic.value.DoubleValue
8.759

@<SCITEGIC>MOL_PROPERTY
Bond
SciTegic.value.DoubleValue
0.160

@<SCITEGIC>MOL_PROPERTY
Angle
SciTegic.value.DoubleValue
2.698

@<SCITEGIC>MOL_PROPERTY
Pdih
SciTegic.value.DoubleValue
5.074

@<SCITEGIC>MOL_PROPERTY
Idih
SciTegic.value.DoubleValue
0.001

@<SCITEGIC>MOL_PROPERTY
Tether
SciTegic.value.DoubleValue
0.000

@<TRIPOS>MOLECULE
guest-s21_confgen4.mol2 : confsearch ligand conformer 92
          22          21           1
SMALL
USER_CHARGES
 
@<TRIPOS>ATOM
       1    C1      20.193943   21.580716   24.412153 C.2        1 MOL1         0.6145
       2    O1      20.583400   21.169748   25.487326 O.co2      1 MOL1        -0.6735
       3    O2      20.071952   22.760306   24.147075 O.co2      1 MOL1        -0.6735
       4    C2      19.861196   20.561274   23.328631 C.3        1 MOL1        -0.1985
       5    H1      19.066073   20.979170   22.699804 H          1 MOL1         0.0740
       6    H2      19.457654   19.671138   23.824151 H          1 MOL1         0.0740
       7    C3      21.088889   20.184805   22.461351 C.3        1 MOL1        -0.1882
       8    H3      21.553647   21.108484   22.089547 H          1 MOL1         0.0742
       9    H4      21.841854   19.695275   23.094328 H          1 MOL1         0.0742
      10    C4      20.760508   19.277667   21.248943 C.3        1 MOL1        -0.1880
      11    H5      21.693609   19.122115   20.690308 H          1 MOL1         0.0742
      12    H6      20.083596   19.800021   20.559095 H          1 MOL1         0.0742
      13    C5      20.182953   17.888197   21.619769 C.3        1 MOL1        -0.1880
      14    H7      20.576299   17.147249   20.910356 H          1 MOL1         0.0742
      15    H8      20.542820   17.582300   22.611679 H          1 MOL1         0.0742
      16    C6      18.638708   17.831965   21.565912 C.3        1 MOL1        -0.1856
      17    H9      18.297003   18.084353   20.552634 H          1 MOL1         0.0742
      18    H10     18.201126   18.578445   22.239451 H          1 MOL1         0.0742
      19    C7      18.110314   16.434617   21.947420 C.3        1 MOL1        -0.2871
      20    H11     18.498822   15.667490   21.264843 H          1 MOL1         0.0754
      21    H12     17.014006   16.408749   21.897685 H          1 MOL1         0.0754
      22    H13     18.409616   16.167783   22.969466 H          1 MOL1         0.0754
@<TRIPOS>BOND
    1     1     2    1
    2     1     3    2
    3     1     4    1
    4     4     5    1
    5     4     6    1
    6     4     7    1
    7     7     8    1
    8     7     9    1
    9     7    10    1
   10    10    11    1
   11    10    12    1
   12    10    13    1
   13    13    14    1
   14    13    15    1
   15    13    16    1
   16    16    17    1
   17    16    18    1
   18    16    19    1
   19    19    20    1
   20    19    21    1
   21    19    22    1
@<TRIPOS>SUBSTRUCTURE
       1 MOL1            1 RESIDUE      1      MOL     
@<SCITEGIC>MOL_PROPERTY
VConf Rank
SciTegic.value.IntegerValue
92

@<SCITEGIC>MOL_PROPERTY
Conf_Id
SciTegic.value.IntegerValue
5

@<SCITEGIC>MOL_PROPERTY
Delta U+W
SciTegic.value.DoubleValue
2.167

@<SCITEGIC>MOL_PROPERTY
U+W
SciTegic.value.DoubleValue
-50.993

@<SCITEGIC>MOL_PROPERTY
Grad RMS
SciTegic.value.DoubleValue
0.000000

@<SCITEGIC>MOL_PROPERTY
U
SciTegic.value.DoubleValue
10.045

@<SCITEGIC>MOL_PROPERTY
W
SciTegic.value.DoubleValue
-61.037

@<SCITEGIC>MOL_PROPERTY
W(PB)
SciTegic.value.DoubleValue
-63.303

@<SCITEGIC>MOL_PROPERTY
W(SA)
SciTegic.value.DoubleValue
2.266

@<SCITEGIC>MOL_PROPERTY
Valence
SciTegic.value.DoubleValue
10.100

@<SCITEGIC>MOL_PROPERTY
Coulomb
SciTegic.value.DoubleValue
-0.883

@<SCITEGIC>MOL_PROPERTY
VdW
SciTegic.value.DoubleValue
0.828

@<SCITEGIC>MOL_PROPERTY
VdW6
SciTegic.value.DoubleValue
-8.177

@<SCITEGIC>MOL_PROPERTY
VdW12
SciTegic.value.DoubleValue
9.005

@<SCITEGIC>MOL_PROPERTY
Bond
SciTegic.value.DoubleValue
0.182

@<SCITEGIC>MOL_PROPERTY
Angle
SciTegic.value.DoubleValue
2.988

@<SCITEGIC>MOL_PROPERTY
Pdih
SciTegic.value.DoubleValue
6.930

@<SCITEGIC>MOL_PROPERTY
Idih
SciTegic.value.DoubleValue
0.001

@<SCITEGIC>MOL_PROPERTY
Tether
SciTegic.value.DoubleValue
0.000

@<TRIPOS>MOLECULE
guest-s21_confgen4.mol2 : confsearch ligand conformer 93
          22          21           1
SMALL
USER_CHARGES
 
@<TRIPOS>ATOM
       1    C1      18.877800   22.027156   23.009179 C.2        1 MOL1         0.6145
       2    O1      19.653160   22.806948   22.492157 O.co2      1 MOL1        -0.6735
       3    O2      17.948223   22.369859   23.712758 O.co2      1 MOL1        -0.6735
       4    C2      19.096567   20.535757   22.781424 C.3        1 MOL1        -0.1985
       5    H1      19.504845   20.411289   21.772193 H          1 MOL1         0.0740
       6    H2      18.118911   20.039932   22.806468 H          1 MOL1         0.0740
       7    C3      20.046547   19.901651   23.828606 C.3        1 MOL1        -0.1882
       8    H3      21.042761   20.355399   23.734137 H          1 MOL1         0.0742
       9    H4      19.685260   20.160161   24.833627 H          1 MOL1         0.0742
      10    C4      20.166730   18.359975   23.731315 C.3        1 MOL1        -0.1880
      11    H5      19.191232   17.892482   23.923170 H          1 MOL1         0.0742
      12    H6      20.822373   18.027470   24.547721 H          1 MOL1         0.0742
      13    C5      20.758140   17.841355   22.396033 C.3        1 MOL1        -0.1880
      14    H7      21.424898   18.597563   21.959516 H          1 MOL1         0.0742
      15    H8      21.387427   16.966737   22.610588 H          1 MOL1         0.0742
      16    C6      19.680217   17.417672   21.371664 C.3        1 MOL1        -0.1856
      17    H9      19.008169   18.255070   21.149220 H          1 MOL1         0.0742
      18    H10     19.057769   16.620894   21.801663 H          1 MOL1         0.0742
      19    C7      20.314253   16.915189   20.059094 C.3        1 MOL1        -0.2871
      20    H11     20.917726   17.702455   19.588572 H          1 MOL1         0.0754
      21    H12     19.537238   16.611733   19.345514 H          1 MOL1         0.0754
      22    H13     20.963225   16.048828   20.242357 H          1 MOL1         0.0754
@<TRIPOS>BOND
    1     1     2    1
    2     1     3    2
    3     1     4    1
    4     4     5    1
    5     4     6    1
    6     4     7    1
    7     7     8    1
    8     7     9    1
    9     7    10    1
   10    10    11    1
   11    10    12    1
   12    10    13    1
   13    13    14    1
   14    13    15    1
   15    13    16    1
   16    16    17    1
   17    16    18    1
   18    16    19    1
   19    19    20    1
   20    19    21    1
   21    19    22    1
@<TRIPOS>SUBSTRUCTURE
       1 MOL1            1 RESIDUE      1      MOL     
@<SCITEGIC>MOL_PROPERTY
VConf Rank
SciTegic.value.IntegerValue
93

@<SCITEGIC>MOL_PROPERTY
Conf_Id
SciTegic.value.IntegerValue
6

@<SCITEGIC>MOL_PROPERTY
Delta U+W
SciTegic.value.DoubleValue
2.118

@<SCITEGIC>MOL_PROPERTY
U+W
SciTegic.value.DoubleValue
-51.042

@<SCITEGIC>MOL_PROPERTY
Grad RMS
SciTegic.value.DoubleValue
0.000000

@<SCITEGIC>MOL_PROPERTY
U
SciTegic.value.DoubleValue
10.045

@<SCITEGIC>MOL_PROPERTY
W
SciTegic.value.DoubleValue
-61.086

@<SCITEGIC>MOL_PROPERTY
W(PB)
SciTegic.value.DoubleValue
-63.356

@<SCITEGIC>MOL_PROPERTY
W(SA)
SciTegic.value.DoubleValue
2.270

@<SCITEGIC>MOL_PROPERTY
Valence
SciTegic.value.DoubleValue
10.100

@<SCITEGIC>MOL_PROPERTY
Coulomb
SciTegic.value.DoubleValue
-0.883

@<SCITEGIC>MOL_PROPERTY
VdW
SciTegic.value.DoubleValue
0.828

@<SCITEGIC>MOL_PROPERTY
VdW6
SciTegic.value.DoubleValue
-8.177

@<SCITEGIC>MOL_PROPERTY
VdW12
SciTegic.value.DoubleValue
9.004

@<SCITEGIC>MOL_PROPERTY
Bond
SciTegic.value.DoubleValue
0.182

@<SCITEGIC>MOL_PROPERTY
Angle
SciTegic.value.DoubleValue
2.988

@<SCITEGIC>MOL_PROPERTY
Pdih
SciTegic.value.DoubleValue
6.930

@<SCITEGIC>MOL_PROPERTY
Idih
SciTegic.value.DoubleValue
0.001

@<SCITEGIC>MOL_PROPERTY
Tether
SciTegic.value.DoubleValue
0.000

@<TRIPOS>MOLECULE
guest-s21_confgen4.mol2 : confsearch ligand conformer 94
          22          21           1
SMALL
USER_CHARGES
 
@<TRIPOS>ATOM
       1    C1      20.707988   21.293175   21.698328 C.2        1 MOL1         0.6145
       2    O1      21.665300   21.535257   22.407162 O.co2      1 MOL1        -0.6735
       3    O2      19.676142   21.934827   21.723461 O.co2      1 MOL1        -0.6735
       4    C2      20.831632   20.168658   20.671864 C.3        1 MOL1        -0.1985
       5    H1      21.627229   20.469002   19.980235 H          1 MOL1         0.0740
       6    H2      19.907086   20.119176   20.083980 H          1 MOL1         0.0740
       7    C3      21.172666   18.769565   21.257796 C.3        1 MOL1        -0.1882
       8    H3      21.589615   18.155586   20.448102 H          1 MOL1         0.0742
       9    H4      21.970213   18.861876   22.008109 H          1 MOL1         0.0742
      10    C4      19.966349   18.004372   21.856287 C.3        1 MOL1        -0.1880
      11    H5      20.293028   16.982394   22.092541 H          1 MOL1         0.0742
      12    H6      19.176641   17.908495   21.098660 H          1 MOL1         0.0742
      13    C5      19.383828   18.647271   23.135294 C.3        1 MOL1        -0.1880
      14    H7      20.192674   18.837385   23.854092 H          1 MOL1         0.0742
      15    H8      18.934172   19.618471   22.893133 H          1 MOL1         0.0742
      16    C6      18.312309   17.748701   23.788261 C.3        1 MOL1        -0.1856
      17    H9      18.750743   16.774369   24.044788 H          1 MOL1         0.0742
      18    H10     17.503430   17.556185   23.069883 H          1 MOL1         0.0742
      19    C7      17.725951   18.396084   25.058890 C.3        1 MOL1        -0.2871
      20    H11     18.509669   18.571284   25.807528 H          1 MOL1         0.0754
      21    H12     16.965608   17.745089   25.509565 H          1 MOL1         0.0754
      22    H13     17.253208   19.359306   24.826038 H          1 MOL1         0.0754
@<TRIPOS>BOND
    1     1     2    1
    2     1     3    2
    3     1     4    1
    4     4     5    1
    5     4     6    1
    6     4     7    1
    7     7     8    1
    8     7     9    1
    9     7    10    1
   10    10    11    1
   11    10    12    1
   12    10    13    1
   13    13    14    1
   14    13    15    1
   15    13    16    1
   16    16    17    1
   17    16    18    1
   18    16    19    1
   19    19    20    1
   20    19    21    1
   21    19    22    1
@<TRIPOS>SUBSTRUCTURE
       1 MOL1            1 RESIDUE      1      MOL     
@<SCITEGIC>MOL_PROPERTY
VConf Rank
SciTegic.value.IntegerValue
94

@<SCITEGIC>MOL_PROPERTY
Conf_Id
SciTegic.value.IntegerValue
8

@<SCITEGIC>MOL_PROPERTY
Delta U+W
SciTegic.value.DoubleValue
1.886

@<SCITEGIC>MOL_PROPERTY
U+W
SciTegic.value.DoubleValue
-51.274

@<SCITEGIC>MOL_PROPERTY
Grad RMS
SciTegic.value.DoubleValue
0.000000

@<SCITEGIC>MOL_PROPERTY
U
SciTegic.value.DoubleValue
11.237

@<SCITEGIC>MOL_PROPERTY
W
SciTegic.value.DoubleValue
-62.510

@<SCITEGIC>MOL_PROPERTY
W(PB)
SciTegic.value.DoubleValue
-64.777

@<SCITEGIC>MOL_PROPERTY
W(SA)
SciTegic.value.DoubleValue
2.267

@<SCITEGIC>MOL_PROPERTY
Valence
SciTegic.value.DoubleValue
9.029

@<SCITEGIC>MOL_PROPERTY
Coulomb
SciTegic.value.DoubleValue
1.667

@<SCITEGIC>MOL_PROPERTY
VdW
SciTegic.value.DoubleValue
0.540

@<SCITEGIC>MOL_PROPERTY
VdW6
SciTegic.value.DoubleValue
-8.825

@<SCITEGIC>MOL_PROPERTY
VdW12
SciTegic.value.DoubleValue
9.365

@<SCITEGIC>MOL_PROPERTY
Bond
SciTegic.value.DoubleValue
0.186

@<SCITEGIC>MOL_PROPERTY
Angle
SciTegic.value.DoubleValue
3.195

@<SCITEGIC>MOL_PROPERTY
Pdih
SciTegic.value.DoubleValue
5.642

@<SCITEGIC>MOL_PROPERTY
Idih
SciTegic.value.DoubleValue
0.007

@<SCITEGIC>MOL_PROPERTY
Tether
SciTegic.value.DoubleValue
0.000

@<TRIPOS>MOLECULE
guest-s21_confgen4.mol2 : confsearch ligand conformer 95
          22          21           1
SMALL
USER_CHARGES
 
@<TRIPOS>ATOM
       1    C1      18.709512   17.149524   20.131196 C.2        1 MOL1         0.6145
       2    O1      19.690448   16.446974   20.275939 O.co2      1 MOL1        -0.6735
       3    O2      18.320753   17.546464   19.050172 O.co2      1 MOL1        -0.6735
       4    C2      17.903093   17.530663   21.369576 C.3        1 MOL1        -0.1985
       5    H1      18.206429   16.882835   22.199645 H          1 MOL1         0.0740
       6    H2      16.853601   17.293137   21.160121 H          1 MOL1         0.0740
       7    C3      18.020037   19.027447   21.768461 C.3        1 MOL1        -0.1882
       8    H3      17.633266   19.641348   20.943318 H          1 MOL1         0.0742
       9    H4      17.366581   19.223221   22.629274 H          1 MOL1         0.0742
      10    C4      19.458000   19.495191   22.103437 C.3        1 MOL1        -0.1880
      11    H5      19.429985   20.578620   22.274877 H          1 MOL1         0.0742
      12    H6      20.111720   19.335827   21.235004 H          1 MOL1         0.0742
      13    C5      20.061711   18.791806   23.343689 C.3        1 MOL1        -0.1880
      14    H7      19.400912   18.932217   24.209784 H          1 MOL1         0.0742
      15    H8      20.111528   17.710960   23.158695 H          1 MOL1         0.0742
      16    C6      21.486427   19.280924   23.694331 C.3        1 MOL1        -0.1856
      17    H9      22.145819   19.155846   22.824311 H          1 MOL1         0.0742
      18    H10     21.893395   18.637451   24.486477 H          1 MOL1         0.0742
      19    C7      21.531725   20.747339   24.176399 C.3        1 MOL1        -0.2871
      20    H11     21.249094   21.442440   23.376210 H          1 MOL1         0.0754
      21    H12     22.545790   21.012375   24.502475 H          1 MOL1         0.0754
      22    H13     20.852678   20.903221   25.024747 H          1 MOL1         0.0754
@<TRIPOS>BOND
    1     1     2    1
    2     1     3    2
    3     1     4    1
    4     4     5    1
    5     4     6    1
    6     4     7    1
    7     7     8    1
    8     7     9    1
    9     7    10    1
   10    10    11    1
   11    10    12    1
   12    10    13    1
   13    13    14    1
   14    13    15    1
   15    13    16    1
   16    16    17    1
   17    16    18    1
   18    16    19    1
   19    19    20    1
   20    19    21    1
   21    19    22    1
@<TRIPOS>SUBSTRUCTURE
       1 MOL1            1 RESIDUE      1      MOL     
@<SCITEGIC>MOL_PROPERTY
VConf Rank
SciTegic.value.IntegerValue
95

@<SCITEGIC>MOL_PROPERTY
Conf_Id
SciTegic.value.IntegerValue
93

@<SCITEGIC>MOL_PROPERTY
Delta U+W
SciTegic.value.DoubleValue
1.836

@<SCITEGIC>MOL_PROPERTY
U+W
SciTegic.value.DoubleValue
-51.323

@<SCITEGIC>MOL_PROPERTY
Grad RMS
SciTegic.value.DoubleValue
0.000000

@<SCITEGIC>MOL_PROPERTY
U
SciTegic.value.DoubleValue
10.427

@<SCITEGIC>MOL_PROPERTY
W
SciTegic.value.DoubleValue
-61.751

@<SCITEGIC>MOL_PROPERTY
W(PB)
SciTegic.value.DoubleValue
-63.980

@<SCITEGIC>MOL_PROPERTY
W(SA)
SciTegic.value.DoubleValue
2.230

@<SCITEGIC>MOL_PROPERTY
Valence
SciTegic.value.DoubleValue
8.446

@<SCITEGIC>MOL_PROPERTY
Coulomb
SciTegic.value.DoubleValue
1.306

@<SCITEGIC>MOL_PROPERTY
VdW
SciTegic.value.DoubleValue
0.676

@<SCITEGIC>MOL_PROPERTY
VdW6
SciTegic.value.DoubleValue
-8.928

@<SCITEGIC>MOL_PROPERTY
VdW12
SciTegic.value.DoubleValue
9.604

@<SCITEGIC>MOL_PROPERTY
Bond
SciTegic.value.DoubleValue
0.209

@<SCITEGIC>MOL_PROPERTY
Angle
SciTegic.value.DoubleValue
3.066

@<SCITEGIC>MOL_PROPERTY
Pdih
SciTegic.value.DoubleValue
5.170

@<SCITEGIC>MOL_PROPERTY
Idih
SciTegic.value.DoubleValue
0.001

@<SCITEGIC>MOL_PROPERTY
Tether
SciTegic.value.DoubleValue
0.000

@<TRIPOS>MOLECULE
guest-s21_confgen4.mol2 : confsearch ligand conformer 96
          22          21           1
SMALL
USER_CHARGES
 
@<TRIPOS>ATOM
       1    C1      17.195872   17.663964   21.398935 C.2        1 MOL1         0.6145
       2    O1      16.059127   17.859941   21.781960 O.co2      1 MOL1        -0.6735
       3    O2      17.771560   16.600550   21.519361 O.co2      1 MOL1        -0.6735
       4    C2      17.927172   18.808098   20.702286 C.3        1 MOL1        -0.1985
       5    H1      17.257728   19.197460   19.926421 H          1 MOL1         0.0740
       6    H2      18.800515   18.401001   20.180508 H          1 MOL1         0.0740
       7    C3      18.342777   19.967114   21.649442 C.3        1 MOL1        -0.1882
       8    H3      18.808264   20.766854   21.057776 H          1 MOL1         0.0742
       9    H4      17.435299   20.400778   22.091875 H          1 MOL1         0.0742
      10    C4      19.303159   19.553495   22.791947 C.3        1 MOL1        -0.1880
      11    H5      18.831127   18.778326   23.410998 H          1 MOL1         0.0742
      12    H6      19.448215   20.424155   23.443794 H          1 MOL1         0.0742
      13    C5      20.678448   19.050247   22.289190 C.3        1 MOL1        -0.1880
      14    H7      20.531354   18.164244   21.658082 H          1 MOL1         0.0742
      15    H8      21.145036   19.814889   21.653492 H          1 MOL1         0.0742
      16    C6      21.646785   18.665215   23.432023 C.3        1 MOL1        -0.1856
      17    H9      22.533928   18.187170   22.994271 H          1 MOL1         0.0742
      18    H10     21.176092   17.911656   24.078534 H          1 MOL1         0.0742
      19    C7      22.103579   19.870259   24.282916 C.3        1 MOL1        -0.2871
      20    H11     21.266653   20.309539   24.839635 H          1 MOL1         0.0754
      21    H12     22.546181   20.651747   23.651664 H          1 MOL1         0.0754
      22    H13     22.860308   19.558108   25.014230 H          1 MOL1         0.0754
@<TRIPOS>BOND
    1     1     2    1
    2     1     3    2
    3     1     4    1
    4     4     5    1
    5     4     6    1
    6     4     7    1
    7     7     8    1
    8     7     9    1
    9     7    10    1
   10    10    11    1
   11    10    12    1
   12    10    13    1
   13    13    14    1
   14    13    15    1
   15    13    16    1
   16    16    17    1
   17    16    18    1
   18    16    19    1
   19    19    20    1
   20    19    21    1
   21    19    22    1
@<TRIPOS>SUBSTRUCTURE
       1 MOL1            1 RESIDUE      1      MOL     
@<SCITEGIC>MOL_PROPERTY
VConf Rank
SciTegic.value.IntegerValue
96

@<SCITEGIC>MOL_PROPERTY
Conf_Id
SciTegic.value.IntegerValue
70

@<SCITEGIC>MOL_PROPERTY
Delta U+W
SciTegic.value.DoubleValue
1.803

@<SCITEGIC>MOL_PROPERTY
U+W
SciTegic.value.DoubleValue
-51.356

@<SCITEGIC>MOL_PROPERTY
Grad RMS
SciTegic.value.DoubleValue
0.000000

@<SCITEGIC>MOL_PROPERTY
U
SciTegic.value.DoubleValue
10.428

@<SCITEGIC>MOL_PROPERTY
W
SciTegic.value.DoubleValue
-61.784

@<SCITEGIC>MOL_PROPERTY
W(PB)
SciTegic.value.DoubleValue
-64.014

@<SCITEGIC>MOL_PROPERTY
W(SA)
SciTegic.value.DoubleValue
2.230

@<SCITEGIC>MOL_PROPERTY
Valence
SciTegic.value.DoubleValue
8.445

@<SCITEGIC>MOL_PROPERTY
Coulomb
SciTegic.value.DoubleValue
1.306

@<SCITEGIC>MOL_PROPERTY
VdW
SciTegic.value.DoubleValue
0.676

@<SCITEGIC>MOL_PROPERTY
VdW6
SciTegic.value.DoubleValue
-8.929

@<SCITEGIC>MOL_PROPERTY
VdW12
SciTegic.value.DoubleValue
9.605

@<SCITEGIC>MOL_PROPERTY
Bond
SciTegic.value.DoubleValue
0.209

@<SCITEGIC>MOL_PROPERTY
Angle
SciTegic.value.DoubleValue
3.066

@<SCITEGIC>MOL_PROPERTY
Pdih
SciTegic.value.DoubleValue
5.170

@<SCITEGIC>MOL_PROPERTY
Idih
SciTegic.value.DoubleValue
0.001

@<SCITEGIC>MOL_PROPERTY
Tether
SciTegic.value.DoubleValue
0.000

@<TRIPOS>MOLECULE
guest-s21_confgen4.mol2 : confsearch ligand conformer 97
          22          21           1
SMALL
USER_CHARGES
 
@<TRIPOS>ATOM
       1    C1      17.115106   19.311510   24.475256 C.2        1 MOL1         0.6145
       2    O1      17.492601   20.132626   25.287771 O.co2      1 MOL1        -0.6735
       3    O2      16.736562   18.195757   24.773043 O.co2      1 MOL1        -0.6735
       4    C2      17.096345   19.712871   23.002961 C.3        1 MOL1        -0.1985
       5    H1      16.657125   20.715538   22.941459 H          1 MOL1         0.0740
       6    H2      16.420972   19.037093   22.464413 H          1 MOL1         0.0740
       7    C3      18.495448   19.718374   22.334034 C.3        1 MOL1        -0.1882
       8    H3      18.406486   20.141305   21.324341 H          1 MOL1         0.0742
       9    H4      19.157912   20.385636   22.901075 H          1 MOL1         0.0742
      10    C4      19.113118   18.302527   22.242252 C.3        1 MOL1        -0.1880
      11    H5      18.396354   17.631802   21.749081 H          1 MOL1         0.0742
      12    H6      19.270857   17.897992   23.251596 H          1 MOL1         0.0742
      13    C5      20.445258   18.261287   21.456612 C.3        1 MOL1        -0.1880
      14    H7      20.745376   17.211442   21.335592 H          1 MOL1         0.0742
      15    H8      20.288393   18.658073   20.444279 H          1 MOL1         0.0742
      16    C6      21.591448   19.034003   22.147501 C.3        1 MOL1        -0.1856
      17    H9      21.713033   18.673014   23.178119 H          1 MOL1         0.0742
      18    H10     21.344485   20.101980   22.209082 H          1 MOL1         0.0742
      19    C7      22.922758   18.870205   21.386898 C.3        1 MOL1        -0.2871
      20    H11     23.221271   17.814752   21.339341 H          1 MOL1         0.0754
      21    H12     23.725372   19.426885   21.887874 H          1 MOL1         0.0754
      22    H13     22.837169   19.249125   20.360026 H          1 MOL1         0.0754
@<TRIPOS>BOND
    1     1     2    1
    2     1     3    2
    3     1     4    1
    4     4     5    1
    5     4     6    1
    6     4     7    1
    7     7     8    1
    8     7     9    1
    9     7    10    1
   10    10    11    1
   11    10    12    1
   12    10    13    1
   13    13    14    1
   14    13    15    1
   15    13    16    1
   16    16    17    1
   17    16    18    1
   18    16    19    1
   19    19    20    1
   20    19    21    1
   21    19    22    1
@<TRIPOS>SUBSTRUCTURE
       1 MOL1            1 RESIDUE      1      MOL     
@<SCITEGIC>MOL_PROPERTY
VConf Rank
SciTegic.value.IntegerValue
97

@<SCITEGIC>MOL_PROPERTY
Conf_Id
SciTegic.value.IntegerValue
85

@<SCITEGIC>MOL_PROPERTY
Delta U+W
SciTegic.value.DoubleValue
0.707

@<SCITEGIC>MOL_PROPERTY
U+W
SciTegic.value.DoubleValue
-52.452

@<SCITEGIC>MOL_PROPERTY
Grad RMS
SciTegic.value.DoubleValue
0.000000

@<SCITEGIC>MOL_PROPERTY
U
SciTegic.value.DoubleValue
8.925

@<SCITEGIC>MOL_PROPERTY
W
SciTegic.value.DoubleValue
-61.378

@<SCITEGIC>MOL_PROPERTY
W(PB)
SciTegic.value.DoubleValue
-63.661

@<SCITEGIC>MOL_PROPERTY
W(SA)
SciTegic.value.DoubleValue
2.283

@<SCITEGIC>MOL_PROPERTY
Valence
SciTegic.value.DoubleValue
7.881

@<SCITEGIC>MOL_PROPERTY
Coulomb
SciTegic.value.DoubleValue
0.349

@<SCITEGIC>MOL_PROPERTY
VdW
SciTegic.value.DoubleValue
0.695

@<SCITEGIC>MOL_PROPERTY
VdW6
SciTegic.value.DoubleValue
-8.049

@<SCITEGIC>MOL_PROPERTY
VdW12
SciTegic.value.DoubleValue
8.743

@<SCITEGIC>MOL_PROPERTY
Bond
SciTegic.value.DoubleValue
0.156

@<SCITEGIC>MOL_PROPERTY
Angle
SciTegic.value.DoubleValue
2.660

@<SCITEGIC>MOL_PROPERTY
Pdih
SciTegic.value.DoubleValue
5.064

@<SCITEGIC>MOL_PROPERTY
Idih
SciTegic.value.DoubleValue
0.001

@<SCITEGIC>MOL_PROPERTY
Tether
SciTegic.value.DoubleValue
0.000

@<TRIPOS>MOLECULE
guest-s21_confgen4.mol2 : confsearch ligand conformer 98
          22          21           1
SMALL
USER_CHARGES
 
@<TRIPOS>ATOM
       1    C1      16.542645   19.090100   22.136839 C.2        1 MOL1         0.6145
       2    O1      16.172693   19.291412   20.996861 O.co2      1 MOL1        -0.6735
       3    O2      16.052617   18.248328   22.863658 O.co2      1 MOL1        -0.6735
       4    C2      17.668199   19.956132   22.695866 C.3        1 MOL1        -0.1985
       5    H1      17.360021   20.287691   23.694408 H          1 MOL1         0.0740
       6    H2      17.758974   20.856597   22.076368 H          1 MOL1         0.0740
       7    C3      19.036370   19.231783   22.791331 C.3        1 MOL1        -0.1882
       8    H3      19.730846   19.876790   23.344121 H          1 MOL1         0.0742
       9    H4      18.920462   18.307882   23.374639 H          1 MOL1         0.0742
      10    C4      19.635631   18.906438   21.403484 C.3        1 MOL1        -0.1880
      11    H5      19.827838   19.841940   20.860719 H          1 MOL1         0.0742
      12    H6      18.893411   18.355009   20.810291 H          1 MOL1         0.0742
      13    C5      20.934524   18.063266   21.453111 C.3        1 MOL1        -0.1880
      14    H7      20.731489   17.085793   21.911642 H          1 MOL1         0.0742
      15    H8      21.229243   17.850549   20.416405 H          1 MOL1         0.0742
      16    C6      22.128302   18.750963   22.161538 C.3        1 MOL1        -0.1856
      17    H9      22.039987   19.843371   22.083717 H          1 MOL1         0.0742
      18    H10     23.052989   18.481186   21.632887 H          1 MOL1         0.0742
      19    C7      22.283985   18.329608   23.639797 C.3        1 MOL1        -0.2871
      20    H11     21.398133   18.584058   24.232608 H          1 MOL1         0.0754
      21    H12     23.147096   18.833452   24.093669 H          1 MOL1         0.0754
      22    H13     22.446266   17.246997   23.721688 H          1 MOL1         0.0754
@<TRIPOS>BOND
    1     1     2    1
    2     1     3    2
    3     1     4    1
    4     4     5    1
    5     4     6    1
    6     4     7    1
    7     7     8    1
    8     7     9    1
    9     7    10    1
   10    10    11    1
   11    10    12    1
   12    10    13    1
   13    13    14    1
   14    13    15    1
   15    13    16    1
   16    16    17    1
   17    16    18    1
   18    16    19    1
   19    19    20    1
   20    19    21    1
   21    19    22    1
@<TRIPOS>SUBSTRUCTURE
       1 MOL1            1 RESIDUE      1      MOL     
@<SCITEGIC>MOL_PROPERTY
VConf Rank
SciTegic.value.IntegerValue
98

@<SCITEGIC>MOL_PROPERTY
Conf_Id
SciTegic.value.IntegerValue
82

@<SCITEGIC>MOL_PROPERTY
Delta U+W
SciTegic.value.DoubleValue
3.438

@<SCITEGIC>MOL_PROPERTY
U+W
SciTegic.value.DoubleValue
-49.721

@<SCITEGIC>MOL_PROPERTY
Grad RMS
SciTegic.value.DoubleValue
0.000000

@<SCITEGIC>MOL_PROPERTY
U
SciTegic.value.DoubleValue
11.773

@<SCITEGIC>MOL_PROPERTY
W
SciTegic.value.DoubleValue
-61.495

@<SCITEGIC>MOL_PROPERTY
W(PB)
SciTegic.value.DoubleValue
-63.749

@<SCITEGIC>MOL_PROPERTY
W(SA)
SciTegic.value.DoubleValue
2.254

@<SCITEGIC>MOL_PROPERTY
Valence
SciTegic.value.DoubleValue
10.419

@<SCITEGIC>MOL_PROPERTY
Coulomb
SciTegic.value.DoubleValue
0.565

@<SCITEGIC>MOL_PROPERTY
VdW
SciTegic.value.DoubleValue
0.789

@<SCITEGIC>MOL_PROPERTY
VdW6
SciTegic.value.DoubleValue
-8.847

@<SCITEGIC>MOL_PROPERTY
VdW12
SciTegic.value.DoubleValue
9.636

@<SCITEGIC>MOL_PROPERTY
Bond
SciTegic.value.DoubleValue
0.200

@<SCITEGIC>MOL_PROPERTY
Angle
SciTegic.value.DoubleValue
3.187

@<SCITEGIC>MOL_PROPERTY
Pdih
SciTegic.value.DoubleValue
7.032

@<SCITEGIC>MOL_PROPERTY
Idih
SciTegic.value.DoubleValue
0.001

@<SCITEGIC>MOL_PROPERTY
Tether
SciTegic.value.DoubleValue
0.000

@<TRIPOS>MOLECULE
guest-s21_confgen4.mol2 : confsearch ligand conformer 99
          22          21           1
SMALL
USER_CHARGES
 
@<TRIPOS>ATOM
       1    C1      19.549889   22.138970   21.661789 C.2        1 MOL1         0.6145
       2    O1      19.142096   22.230553   20.520610 O.co2      1 MOL1        -0.6735
       3    O2      19.090677   22.771534   22.592341 O.co2      1 MOL1        -0.6735
       4    C2      20.717596   21.194879   21.934830 C.3        1 MOL1        -0.1985
       5    H1      21.178231   21.473555   22.890346 H          1 MOL1         0.0740
       6    H2      21.469372   21.371654   21.156643 H          1 MOL1         0.0740
       7    C3      20.328438   19.693503   21.945780 C.3        1 MOL1        -0.1882
       8    H3      19.826149   19.439606   21.002107 H          1 MOL1         0.0742
       9    H4      21.249129   19.098362   21.990947 H          1 MOL1         0.0742
      10    C4      19.420878   19.322659   23.141561 C.3        1 MOL1        -0.1880
      11    H5      18.552877   19.995817   23.158079 H          1 MOL1         0.0742
      12    H6      19.963640   19.499522   24.080086 H          1 MOL1         0.0742
      13    C5      18.898320   17.864311   23.115443 C.3        1 MOL1        -0.1880
      14    H7      18.226306   17.739505   23.975494 H          1 MOL1         0.0742
      15    H8      18.275441   17.703535   22.224882 H          1 MOL1         0.0742
      16    C6      19.999620   16.778359   23.203438 C.3        1 MOL1        -0.1856
      17    H9      19.620397   15.941862   23.806563 H          1 MOL1         0.0742
      18    H10     20.876789   17.167360   23.738661 H          1 MOL1         0.0742
      19    C7      20.416796   16.221011   21.824179 C.3        1 MOL1        -0.2871
      20    H11     19.559639   15.764038   21.312765 H          1 MOL1         0.0754
      21    H12     21.188908   15.449422   21.939560 H          1 MOL1         0.0754
      22    H13     20.820779   17.003867   21.172382 H          1 MOL1         0.0754
@<TRIPOS>BOND
    1     1     2    1
    2     1     3    2
    3     1     4    1
    4     4     5    1
    5     4     6    1
    6     4     7    1
    7     7     8    1
    8     7     9    1
    9     7    10    1
   10    10    11    1
   11    10    12    1
   12    10    13    1
   13    13    14    1
   14    13    15    1
   15    13    16    1
   16    16    17    1
   17    16    18    1
   18    16    19    1
   19    19    20    1
   20    19    21    1
   21    19    22    1
@<TRIPOS>SUBSTRUCTURE
       1 MOL1            1 RESIDUE      1      MOL     
@<SCITEGIC>MOL_PROPERTY
VConf Rank
SciTegic.value.IntegerValue
99

@<SCITEGIC>MOL_PROPERTY
Conf_Id
SciTegic.value.IntegerValue
94

@<SCITEGIC>MOL_PROPERTY
Delta U+W
SciTegic.value.DoubleValue
3.471

@<SCITEGIC>MOL_PROPERTY
U+W
SciTegic.value.DoubleValue
-49.688

@<SCITEGIC>MOL_PROPERTY
Grad RMS
SciTegic.value.DoubleValue
0.000000

@<SCITEGIC>MOL_PROPERTY
U
SciTegic.value.DoubleValue
11.773

@<SCITEGIC>MOL_PROPERTY
W
SciTegic.value.DoubleValue
-61.461

@<SCITEGIC>MOL_PROPERTY
W(PB)
SciTegic.value.DoubleValue
-63.710

@<SCITEGIC>MOL_PROPERTY
W(SA)
SciTegic.value.DoubleValue
2.248

@<SCITEGIC>MOL_PROPERTY
Valence
SciTegic.value.DoubleValue
10.419

@<SCITEGIC>MOL_PROPERTY
Coulomb
SciTegic.value.DoubleValue
0.566

@<SCITEGIC>MOL_PROPERTY
VdW
SciTegic.value.DoubleValue
0.789

@<SCITEGIC>MOL_PROPERTY
VdW6
SciTegic.value.DoubleValue
-8.847

@<SCITEGIC>MOL_PROPERTY
VdW12
SciTegic.value.DoubleValue
9.636

@<SCITEGIC>MOL_PROPERTY
Bond
SciTegic.value.DoubleValue
0.200

@<SCITEGIC>MOL_PROPERTY
Angle
SciTegic.value.DoubleValue
3.187

@<SCITEGIC>MOL_PROPERTY
Pdih
SciTegic.value.DoubleValue
7.032

@<SCITEGIC>MOL_PROPERTY
Idih
SciTegic.value.DoubleValue
0.001

@<SCITEGIC>MOL_PROPERTY
Tether
SciTegic.value.DoubleValue
0.000

@<TRIPOS>MOLECULE
guest-s21_confgen4.mol2 : confsearch ligand conformer 100
          22          21           1
SMALL
USER_CHARGES
 
@<TRIPOS>ATOM
       1    C1      20.439130   15.904839   23.117578 C.2        1 MOL1         0.6145
       2    O1      21.440973   15.224432   23.017309 O.co2      1 MOL1        -0.6735
       3    O2      19.311880   15.455026   23.057996 O.co2      1 MOL1        -0.6735
       4    C2      20.606145   17.407920   23.309375 C.3        1 MOL1        -0.1985
       5    H1      21.522981   17.578421   23.886067 H          1 MOL1         0.0740
       6    H2      19.767056   17.761827   23.919059 H          1 MOL1         0.0740
       7    C3      20.667171   18.181161   21.966681 C.3        1 MOL1        -0.1882
       8    H3      21.464081   17.748694   21.346194 H          1 MOL1         0.0742
       9    H4      19.732557   18.027316   21.411114 H          1 MOL1         0.0742
      10    C4      20.941753   19.696327   22.137830 C.3        1 MOL1        -0.1880
      11    H5      21.021845   20.157097   21.144477 H          1 MOL1         0.0742
      12    H6      21.926664   19.827251   22.606185 H          1 MOL1         0.0742
      13    C5      19.888740   20.467720   22.976450 C.3        1 MOL1        -0.1880
      14    H7      19.923539   20.116372   24.015966 H          1 MOL1         0.0742
      15    H8      20.177567   21.526900   23.011955 H          1 MOL1         0.0742
      16    C6      18.432182   20.365447   22.460789 C.3        1 MOL1        -0.1856
      17    H9      17.778603   20.924690   23.144156 H          1 MOL1         0.0742
      18    H10     18.089956   19.322634   22.498540 H          1 MOL1         0.0742
      19    C7      18.250427   20.922465   21.032329 C.3        1 MOL1        -0.2871
      20    H11     18.602001   21.960342   20.967829 H          1 MOL1         0.0754
      21    H12     17.191266   20.904988   20.744897 H          1 MOL1         0.0754
      22    H13     18.804647   20.324498   20.298004 H          1 MOL1         0.0754
@<TRIPOS>BOND
    1     1     2    1
    2     1     3    2
    3     1     4    1
    4     4     5    1
    5     4     6    1
    6     4     7    1
    7     7     8    1
    8     7     9    1
    9     7    10    1
   10    10    11    1
   11    10    12    1
   12    10    13    1
   13    13    14    1
   14    13    15    1
   15    13    16    1
   16    16    17    1
   17    16    18    1
   18    16    19    1
   19    19    20    1
   20    19    21    1
   21    19    22    1
@<TRIPOS>SUBSTRUCTURE
       1 MOL1            1 RESIDUE      1      MOL     
@<SCITEGIC>MOL_PROPERTY
VConf Rank
SciTegic.value.IntegerValue
100

@<SCITEGIC>MOL_PROPERTY
Conf_Id
SciTegic.value.IntegerValue
56

@<SCITEGIC>MOL_PROPERTY
Delta U+W
SciTegic.value.DoubleValue
0.853

@<SCITEGIC>MOL_PROPERTY
U+W
SciTegic.value.DoubleValue
-52.307

@<SCITEGIC>MOL_PROPERTY
Grad RMS
SciTegic.value.DoubleValue
0.000000

@<SCITEGIC>MOL_PROPERTY
U
SciTegic.value.DoubleValue
8.874

@<SCITEGIC>MOL_PROPERTY
W
SciTegic.value.DoubleValue
-61.181

@<SCITEGIC>MOL_PROPERTY
W(PB)
SciTegic.value.DoubleValue
-63.413

@<SCITEGIC>MOL_PROPERTY
W(SA)
SciTegic.value.DoubleValue
2.232

@<SCITEGIC>MOL_PROPERTY
Valence
SciTegic.value.DoubleValue
8.479

@<SCITEGIC>MOL_PROPERTY
Coulomb
SciTegic.value.DoubleValue
-0.357

@<SCITEGIC>MOL_PROPERTY
VdW
SciTegic.value.DoubleValue
0.753

@<SCITEGIC>MOL_PROPERTY
VdW6
SciTegic.value.DoubleValue
-9.081

@<SCITEGIC>MOL_PROPERTY
VdW12
SciTegic.value.DoubleValue
9.833

@<SCITEGIC>MOL_PROPERTY
Bond
SciTegic.value.DoubleValue
0.221

@<SCITEGIC>MOL_PROPERTY
Angle
SciTegic.value.DoubleValue
3.208

@<SCITEGIC>MOL_PROPERTY
Pdih
SciTegic.value.DoubleValue
5.050

@<SCITEGIC>MOL_PROPERTY
Idih
SciTegic.value.DoubleValue
0.000

@<SCITEGIC>MOL_PROPERTY
Tether
SciTegic.value.DoubleValue
0.000

@<TRIPOS>MOLECULE
guest-s21_confgen4.mol2 : confsearch ligand conformer 101
          22          21           1
SMALL
USER_CHARGES
 
@<TRIPOS>ATOM
       1    C1      23.090511   21.250526   22.842684 C.2        1 MOL1         0.6145
       2    O1      22.613824   21.741044   23.847951 O.co2      1 MOL1        -0.6735
       3    O2      24.192861   21.539777   22.421875 O.co2      1 MOL1        -0.6735
       4    C2      22.288970   20.217947   22.048430 C.3        1 MOL1        -0.1985
       5    H1      22.895518   19.306440   21.991649 H          1 MOL1         0.0740
       6    H2      22.186695   20.599612   21.025767 H          1 MOL1         0.0740
       7    C3      20.888116   19.880577   22.624795 C.3        1 MOL1        -0.1882
       8    H3      20.997304   19.504696   23.651577 H          1 MOL1         0.0742
       9    H4      20.287768   20.798994   22.684649 H          1 MOL1         0.0742
      10    C4      20.150010   18.832633   21.763676 C.3        1 MOL1        -0.1880
      11    H5      20.752076   17.915443   21.705298 H          1 MOL1         0.0742
      12    H6      20.042175   19.210562   20.737678 H          1 MOL1         0.0742
      13    C5      18.756789   18.498580   22.338698 C.3        1 MOL1        -0.1880
      14    H7      18.864106   18.120651   23.364749 H          1 MOL1         0.0742
      15    H8      18.154326   19.415498   22.397237 H          1 MOL1         0.0742
      16    C6      18.018651   17.451367   21.478698 C.3        1 MOL1        -0.1856
      17    H9      18.617431   16.531889   21.419550 H          1 MOL1         0.0742
      18    H10     17.907682   17.826781   20.451943 H          1 MOL1         0.0742
      19    C7      16.627827   17.120595   22.056224 C.3        1 MOL1        -0.2871
      20    H11     16.711219   16.713068   23.072283 H          1 MOL1         0.0754
      21    H12     16.117412   16.374961   21.432848 H          1 MOL1         0.0754
      22    H13     15.996137   18.017636   22.097361 H          1 MOL1         0.0754
@<TRIPOS>BOND
    1     1     2    1
    2     1     3    2
    3     1     4    1
    4     4     5    1
    5     4     6    1
    6     4     7    1
    7     7     8    1
    8     7     9    1
    9     7    10    1
   10    10    11    1
   11    10    12    1
   12    10    13    1
   13    13    14    1
   14    13    15    1
   15    13    16    1
   16    16    17    1
   17    16    18    1
   18    16    19    1
   19    19    20    1
   20    19    21    1
   21    19    22    1
@<TRIPOS>SUBSTRUCTURE
       1 MOL1            1 RESIDUE      1      MOL     
@<SCITEGIC>MOL_PROPERTY
VConf Rank
SciTegic.value.IntegerValue
101

@<SCITEGIC>MOL_PROPERTY
Conf_Id
SciTegic.value.IntegerValue
0

@<SCITEGIC>MOL_PROPERTY
Delta U+W
SciTegic.value.DoubleValue
0.000

@<SCITEGIC>MOL_PROPERTY
U+W
SciTegic.value.DoubleValue
-53.159

@<SCITEGIC>MOL_PROPERTY
Grad RMS
SciTegic.value.DoubleValue
0.000000

@<SCITEGIC>MOL_PROPERTY
U
SciTegic.value.DoubleValue
6.763

@<SCITEGIC>MOL_PROPERTY
W
SciTegic.value.DoubleValue
-59.922

@<SCITEGIC>MOL_PROPERTY
W(PB)
SciTegic.value.DoubleValue
-62.256

@<SCITEGIC>MOL_PROPERTY
W(SA)
SciTegic.value.DoubleValue
2.334

@<SCITEGIC>MOL_PROPERTY
Valence
SciTegic.value.DoubleValue
7.600

@<SCITEGIC>MOL_PROPERTY
Coulomb
SciTegic.value.DoubleValue
-2.139

@<SCITEGIC>MOL_PROPERTY
VdW
SciTegic.value.DoubleValue
1.302

@<SCITEGIC>MOL_PROPERTY
VdW6
SciTegic.value.DoubleValue
-6.786

@<SCITEGIC>MOL_PROPERTY
VdW12
SciTegic.value.DoubleValue
8.088

@<SCITEGIC>MOL_PROPERTY
Bond
SciTegic.value.DoubleValue
0.134

@<SCITEGIC>MOL_PROPERTY
Angle
SciTegic.value.DoubleValue
2.720

@<SCITEGIC>MOL_PROPERTY
Pdih
SciTegic.value.DoubleValue
4.746

@<SCITEGIC>MOL_PROPERTY
Idih
SciTegic.value.DoubleValue
0.000

@<SCITEGIC>MOL_PROPERTY
Tether
SciTegic.value.DoubleValue
0.000

@<TRIPOS>MOLECULE
guest-s21_confgen4.mol2 : confsearch ligand conformer 102
          22          21           1
SMALL
USER_CHARGES
 
@<TRIPOS>ATOM
       1    C1      23.430218   20.671009   22.533560 C.2        1 MOL1         0.6145
       2    O1      23.672521   21.099814   23.644347 O.co2      1 MOL1        -0.6735
       3    O2      23.853082   21.173294   21.511148 O.co2      1 MOL1        -0.6735
       4    C2      22.527342   19.448316   22.415022 C.3        1 MOL1        -0.1985
       5    H1      22.695342   18.814208   23.293854 H          1 MOL1         0.0740
       6    H2      22.844424   18.874570   21.535854 H          1 MOL1         0.0740
       7    C3      21.027589   19.816654   22.300487 C.3        1 MOL1        -0.1882
       8    H3      20.729283   20.401646   23.181606 H          1 MOL1         0.0742
       9    H4      20.878359   20.462005   21.423660 H          1 MOL1         0.0742
      10    C4      20.135065   18.562390   22.181737 C.3        1 MOL1        -0.1880
      11    H5      20.287559   17.918896   23.059139 H          1 MOL1         0.0742
      12    H6      20.436703   17.979242   21.300758 H          1 MOL1         0.0742
      13    C5      18.640678   18.932652   22.067691 C.3        1 MOL1        -0.1880
      14    H7      18.338648   19.515827   22.948492 H          1 MOL1         0.0742
      15    H8      18.487764   19.576165   21.190402 H          1 MOL1         0.0742
      16    C6      17.748000   17.679615   21.948976 C.3        1 MOL1        -0.1856
      17    H9      17.896715   17.034284   22.825850 H          1 MOL1         0.0742
      18    H10     18.045838   17.094606   21.067764 H          1 MOL1         0.0742
      19    C7      16.256503   18.053587   21.835301 C.3        1 MOL1        -0.2871
      20    H11     16.073568   18.673722   20.947959 H          1 MOL1         0.0754
      21    H12     15.923372   18.613101   22.719255 H          1 MOL1         0.0754
      22    H13     15.636704   17.151378   21.751869 H          1 MOL1         0.0754
@<TRIPOS>BOND
    1     1     2    1
    2     1     3    2
    3     1     4    1
    4     4     5    1
    5     4     6    1
    6     4     7    1
    7     7     8    1
    8     7     9    1
    9     7    10    1
   10    10    11    1
   11    10    12    1
   12    10    13    1
   13    13    14    1
   14    13    15    1
   15    13    16    1
   16    16    17    1
   17    16    18    1
   18    16    19    1
   19    19    20    1
   20    19    21    1
   21    19    22    1
@<TRIPOS>SUBSTRUCTURE
       1 MOL1            1 RESIDUE      1      MOL     
@<SCITEGIC>MOL_PROPERTY
VConf Rank
SciTegic.value.IntegerValue
102

@<SCITEGIC>MOL_PROPERTY
Conf_Id
SciTegic.value.IntegerValue
10

@<SCITEGIC>MOL_PROPERTY
Delta U+W
SciTegic.value.DoubleValue
-1.291

@<SCITEGIC>MOL_PROPERTY
U+W
SciTegic.value.DoubleValue
-54.451

@<SCITEGIC>MOL_PROPERTY
Grad RMS
SciTegic.value.DoubleValue
0.000000

@<SCITEGIC>MOL_PROPERTY
U
SciTegic.value.DoubleValue
5.779

@<SCITEGIC>MOL_PROPERTY
W
SciTegic.value.DoubleValue
-60.230

@<SCITEGIC>MOL_PROPERTY
W(PB)
SciTegic.value.DoubleValue
-62.557

@<SCITEGIC>MOL_PROPERTY
W(SA)
SciTegic.value.DoubleValue
2.328

@<SCITEGIC>MOL_PROPERTY
Valence
SciTegic.value.DoubleValue
7.101

@<SCITEGIC>MOL_PROPERTY
Coulomb
SciTegic.value.DoubleValue
-2.079

@<SCITEGIC>MOL_PROPERTY
VdW
SciTegic.value.DoubleValue
0.757

@<SCITEGIC>MOL_PROPERTY
VdW6
SciTegic.value.DoubleValue
-6.496

@<SCITEGIC>MOL_PROPERTY
VdW12
SciTegic.value.DoubleValue
7.253

@<SCITEGIC>MOL_PROPERTY
Bond
SciTegic.value.DoubleValue
0.100

@<SCITEGIC>MOL_PROPERTY
Angle
SciTegic.value.DoubleValue
2.262

@<SCITEGIC>MOL_PROPERTY
Pdih
SciTegic.value.DoubleValue
4.738

@<SCITEGIC>MOL_PROPERTY
Idih
SciTegic.value.DoubleValue
0.001

@<SCITEGIC>MOL_PROPERTY
Tether
SciTegic.value.DoubleValue
0.000

@<TRIPOS>MOLECULE
guest-s21_confgen4.mol2 : confsearch ligand conformer 103
          22          21           1
SMALL
USER_CHARGES
 
@<TRIPOS>ATOM
       1    C1      19.296333   17.625560   18.598355 C.2        1 MOL1         0.6145
       2    O1      20.158457   17.987863   17.822513 O.co2      1 MOL1        -0.6735
       3    O2      18.647246   16.608261   18.456070 O.co2      1 MOL1        -0.6735
       4    C2      19.028770   18.484004   19.829490 C.3        1 MOL1        -0.1985
       5    H1      17.965376   18.395141   20.082357 H          1 MOL1         0.0740
       6    H2      19.211708   19.531396   19.560862 H          1 MOL1         0.0740
       7    C3      19.902123   18.083337   21.043933 C.3        1 MOL1        -0.1882
       8    H3      19.717038   17.028816   21.291403 H          1 MOL1         0.0742
       9    H4      20.963337   18.165571   20.770779 H          1 MOL1         0.0742
      10    C4      19.612502   18.966848   22.276764 C.3        1 MOL1        -0.1880
      11    H5      18.551601   18.881032   22.548756 H          1 MOL1         0.0742
      12    H6      19.793546   20.017903   22.016625 H          1 MOL1         0.0742
      13    C5      20.489378   18.565319   23.485120 C.3        1 MOL1        -0.1880
      14    H7      20.349844   17.494645   23.687900 H          1 MOL1         0.0742
      15    H8      21.550380   18.698557   23.233213 H          1 MOL1         0.0742
      16    C6      20.160566   19.355650   24.772974 C.3        1 MOL1        -0.1856
      17    H9      20.739900   18.931198   25.604507 H          1 MOL1         0.0742
      18    H10     19.101369   19.219647   25.031657 H          1 MOL1         0.0742
      19    C7      20.479251   20.862535   24.663673 C.3        1 MOL1        -0.2871
      20    H11     20.313290   21.360738   25.627608 H          1 MOL1         0.0754
      21    H12     19.838848   21.354787   23.921194 H          1 MOL1         0.0754
      22    H13     21.526560   21.022836   24.376301 H          1 MOL1         0.0754
@<TRIPOS>BOND
    1     1     2    1
    2     1     3    2
    3     1     4    1
    4     4     5    1
    5     4     6    1
    6     4     7    1
    7     7     8    1
    8     7     9    1
    9     7    10    1
   10    10    11    1
   11    10    12    1
   12    10    13    1
   13    13    14    1
   14    13    15    1
   15    13    16    1
   16    16    17    1
   17    16    18    1
   18    16    19    1
   19    19    20    1
   20    19    21    1
   21    19    22    1
@<TRIPOS>SUBSTRUCTURE
       1 MOL1            1 RESIDUE      1      MOL     
@<SCITEGIC>MOL_PROPERTY
VConf Rank
SciTegic.value.IntegerValue
103

@<SCITEGIC>MOL_PROPERTY
Conf_Id
SciTegic.value.IntegerValue
37

@<SCITEGIC>MOL_PROPERTY
Delta U+W
SciTegic.value.DoubleValue
-0.345

@<SCITEGIC>MOL_PROPERTY
U+W
SciTegic.value.DoubleValue
-53.504

@<SCITEGIC>MOL_PROPERTY
Grad RMS
SciTegic.value.DoubleValue
0.000000

@<SCITEGIC>MOL_PROPERTY
U
SciTegic.value.DoubleValue
6.751

@<SCITEGIC>MOL_PROPERTY
W
SciTegic.value.DoubleValue
-60.255

@<SCITEGIC>MOL_PROPERTY
W(PB)
SciTegic.value.DoubleValue
-62.592

@<SCITEGIC>MOL_PROPERTY
W(SA)
SciTegic.value.DoubleValue
2.336

@<SCITEGIC>MOL_PROPERTY
Valence
SciTegic.value.DoubleValue
7.602

@<SCITEGIC>MOL_PROPERTY
Coulomb
SciTegic.value.DoubleValue
-1.744

@<SCITEGIC>MOL_PROPERTY
VdW
SciTegic.value.DoubleValue
0.894

@<SCITEGIC>MOL_PROPERTY
VdW6
SciTegic.value.DoubleValue
-7.110

@<SCITEGIC>MOL_PROPERTY
VdW12
SciTegic.value.DoubleValue
8.004

@<SCITEGIC>MOL_PROPERTY
Bond
SciTegic.value.DoubleValue
0.131

@<SCITEGIC>MOL_PROPERTY
Angle
SciTegic.value.DoubleValue
2.489

@<SCITEGIC>MOL_PROPERTY
Pdih
SciTegic.value.DoubleValue
4.982

@<SCITEGIC>MOL_PROPERTY
Idih
SciTegic.value.DoubleValue
0.001

@<SCITEGIC>MOL_PROPERTY
Tether
SciTegic.value.DoubleValue
0.000

@<TRIPOS>MOLECULE
guest-s21_confgen4.mol2 : confsearch ligand conformer 104
          22          21           1
SMALL
USER_CHARGES
 
@<TRIPOS>ATOM
       1    C1      17.900133   21.781466   20.259398 C.2        1 MOL1         0.6145
       2    O1      18.132520   22.895339   20.685702 O.co2      1 MOL1        -0.6735
       3    O2      16.870344   21.480460   19.688971 O.co2      1 MOL1        -0.6735
       4    C2      18.949605   20.696107   20.471095 C.3        1 MOL1        -0.1985
       5    H1      19.938782   21.168864   20.444860 H          1 MOL1         0.0740
       6    H2      18.898949   20.002972   19.622777 H          1 MOL1         0.0740
       7    C3      18.759983   19.926916   21.801713 C.3        1 MOL1        -0.1882
       8    H3      18.800900   20.636218   22.640024 H          1 MOL1         0.0742
       9    H4      17.760191   19.471209   21.817722 H          1 MOL1         0.0742
      10    C4      19.834211   18.834166   21.992191 C.3        1 MOL1        -0.1880
      11    H5      20.828475   19.298911   21.967336 H          1 MOL1         0.0742
      12    H6      19.789477   18.125436   21.154005 H          1 MOL1         0.0742
      13    C5      19.642850   18.071917   23.323589 C.3        1 MOL1        -0.1880
      14    H7      19.737754   18.769787   24.166742 H          1 MOL1         0.0742
      15    H8      18.619912   17.673229   23.363352 H          1 MOL1         0.0742
      16    C6      20.634053   16.899512   23.508776 C.3        1 MOL1        -0.1856
      17    H9      20.537467   16.195883   22.670392 H          1 MOL1         0.0742
      18    H10     20.356233   16.342886   24.414435 H          1 MOL1         0.0742
      19    C7      22.103568   17.355824   23.637297 C.3        1 MOL1        -0.2871
      20    H11     22.219290   18.083625   24.450961 H          1 MOL1         0.0754
      21    H12     22.462733   17.816833   22.708763 H          1 MOL1         0.0754
      22    H13     22.753796   16.498788   23.855505 H          1 MOL1         0.0754
@<TRIPOS>BOND
    1     1     2    1
    2     1     3    2
    3     1     4    1
    4     4     5    1
    5     4     6    1
    6     4     7    1
    7     7     8    1
    8     7     9    1
    9     7    10    1
   10    10    11    1
   11    10    12    1
   12    10    13    1
   13    13    14    1
   14    13    15    1
   15    13    16    1
   16    16    17    1
   17    16    18    1
   18    16    19    1
   19    19    20    1
   20    19    21    1
   21    19    22    1
@<TRIPOS>SUBSTRUCTURE
       1 MOL1            1 RESIDUE      1      MOL     
@<SCITEGIC>MOL_PROPERTY
VConf Rank
SciTegic.value.IntegerValue
104

@<SCITEGIC>MOL_PROPERTY
Conf_Id
SciTegic.value.IntegerValue
38

@<SCITEGIC>MOL_PROPERTY
Delta U+W
SciTegic.value.DoubleValue
-0.439

@<SCITEGIC>MOL_PROPERTY
U+W
SciTegic.value.DoubleValue
-53.598

@<SCITEGIC>MOL_PROPERTY
Grad RMS
SciTegic.value.DoubleValue
0.000000

@<SCITEGIC>MOL_PROPERTY
U
SciTegic.value.DoubleValue
6.751

@<SCITEGIC>MOL_PROPERTY
W
SciTegic.value.DoubleValue
-60.350

@<SCITEGIC>MOL_PROPERTY
W(PB)
SciTegic.value.DoubleValue
-62.659

@<SCITEGIC>MOL_PROPERTY
W(SA)
SciTegic.value.DoubleValue
2.309

@<SCITEGIC>MOL_PROPERTY
Valence
SciTegic.value.DoubleValue
7.602

@<SCITEGIC>MOL_PROPERTY
Coulomb
SciTegic.value.DoubleValue
-1.744

@<SCITEGIC>MOL_PROPERTY
VdW
SciTegic.value.DoubleValue
0.893

@<SCITEGIC>MOL_PROPERTY
VdW6
SciTegic.value.DoubleValue
-7.110

@<SCITEGIC>MOL_PROPERTY
VdW12
SciTegic.value.DoubleValue
8.004

@<SCITEGIC>MOL_PROPERTY
Bond
SciTegic.value.DoubleValue
0.131

@<SCITEGIC>MOL_PROPERTY
Angle
SciTegic.value.DoubleValue
2.489

@<SCITEGIC>MOL_PROPERTY
Pdih
SciTegic.value.DoubleValue
4.981

@<SCITEGIC>MOL_PROPERTY
Idih
SciTegic.value.DoubleValue
0.001

@<SCITEGIC>MOL_PROPERTY
Tether
SciTegic.value.DoubleValue
0.000

@<TRIPOS>MOLECULE
guest-s21_confgen4.mol2 : confsearch ligand conformer 105
          22          21           1
SMALL
USER_CHARGES
 
@<TRIPOS>ATOM
       1    C1      21.186348   21.594068   24.640547 C.2        1 MOL1         0.6145
       2    O1      20.513512   22.500928   25.089386 O.co2      1 MOL1        -0.6735
       3    O2      22.401100   21.607373   24.613494 O.co2      1 MOL1        -0.6735
       4    C2      20.466051   20.382877   24.058757 C.3        1 MOL1        -0.1985
       5    H1      19.532411   20.242336   24.616412 H          1 MOL1         0.0740
       6    H2      21.091975   19.503012   24.244543 H          1 MOL1         0.0740
       7    C3      20.167191   20.533492   22.544290 C.3        1 MOL1        -0.1882
       8    H3      19.623375   21.475101   22.385911 H          1 MOL1         0.0742
       9    H4      21.111767   20.624503   21.990407 H          1 MOL1         0.0742
      10    C4      19.326989   19.373371   21.958714 C.3        1 MOL1        -0.1880
      11    H5      19.050420   19.639955   20.930720 H          1 MOL1         0.0742
      12    H6      18.387365   19.279757   22.519971 H          1 MOL1         0.0742
      13    C5      20.071290   18.015422   21.955120 C.3        1 MOL1        -0.1880
      14    H7      21.011753   18.109671   21.395345 H          1 MOL1         0.0742
      15    H8      20.345791   17.746114   22.982838 H          1 MOL1         0.0742
      16    C6      19.232757   16.857149   21.365728 C.3        1 MOL1        -0.1856
      17    H9      18.285828   16.766987   21.915717 H          1 MOL1         0.0742
      18    H10     19.774633   15.914720   21.525239 H          1 MOL1         0.0742
      19    C7      18.945330   17.012852   19.856491 C.3        1 MOL1        -0.2871
      20    H11     18.300491   17.877692   19.657344 H          1 MOL1         0.0754
      21    H12     18.433482   16.122074   19.469909 H          1 MOL1         0.0754
      22    H13     19.877098   17.139383   19.289990 H          1 MOL1         0.0754
@<TRIPOS>BOND
    1     1     2    1
    2     1     3    2
    3     1     4    1
    4     4     5    1
    5     4     6    1
    6     4     7    1
    7     7     8    1
    8     7     9    1
    9     7    10    1
   10    10    11    1
   11    10    12    1
   12    10    13    1
   13    13    14    1
   14    13    15    1
   15    13    16    1
   16    16    17    1
   17    16    18    1
   18    16    19    1
   19    19    20    1
   20    19    21    1
   21    19    22    1
@<TRIPOS>SUBSTRUCTURE
       1 MOL1            1 RESIDUE      1      MOL     
@<SCITEGIC>MOL_PROPERTY
VConf Rank
SciTegic.value.IntegerValue
105

@<SCITEGIC>MOL_PROPERTY
Conf_Id
SciTegic.value.IntegerValue
60

@<SCITEGIC>MOL_PROPERTY
Delta U+W
SciTegic.value.DoubleValue
0.386

@<SCITEGIC>MOL_PROPERTY
U+W
SciTegic.value.DoubleValue
-52.773

@<SCITEGIC>MOL_PROPERTY
Grad RMS
SciTegic.value.DoubleValue
0.000000

@<SCITEGIC>MOL_PROPERTY
U
SciTegic.value.DoubleValue
7.689

@<SCITEGIC>MOL_PROPERTY
W
SciTegic.value.DoubleValue
-60.463

@<SCITEGIC>MOL_PROPERTY
W(PB)
SciTegic.value.DoubleValue
-62.772

@<SCITEGIC>MOL_PROPERTY
W(SA)
SciTegic.value.DoubleValue
2.309

@<SCITEGIC>MOL_PROPERTY
Valence
SciTegic.value.DoubleValue
8.197

@<SCITEGIC>MOL_PROPERTY
Coulomb
SciTegic.value.DoubleValue
-1.561

@<SCITEGIC>MOL_PROPERTY
VdW
SciTegic.value.DoubleValue
1.053

@<SCITEGIC>MOL_PROPERTY
VdW6
SciTegic.value.DoubleValue
-7.737

@<SCITEGIC>MOL_PROPERTY
VdW12
SciTegic.value.DoubleValue
8.790

@<SCITEGIC>MOL_PROPERTY
Bond
SciTegic.value.DoubleValue
0.181

@<SCITEGIC>MOL_PROPERTY
Angle
SciTegic.value.DoubleValue
2.780

@<SCITEGIC>MOL_PROPERTY
Pdih
SciTegic.value.DoubleValue
5.235

@<SCITEGIC>MOL_PROPERTY
Idih
SciTegic.value.DoubleValue
0.001

@<SCITEGIC>MOL_PROPERTY
Tether
SciTegic.value.DoubleValue
0.000

@<TRIPOS>MOLECULE
guest-s21_confgen4.mol2 : confsearch ligand conformer 106
          22          21           1
SMALL
USER_CHARGES
 
@<TRIPOS>ATOM
       1    C1      18.663324   22.470283   21.671157 C.2        1 MOL1         0.6145
       2    O1      17.545930   22.463435   21.193750 O.co2      1 MOL1        -0.6735
       3    O2      19.406315   23.430947   21.630548 O.co2      1 MOL1        -0.6735
       4    C2      19.169635   21.196184   22.337947 C.3        1 MOL1        -0.1985
       5    H1      18.309777   20.698554   22.799975 H          1 MOL1         0.0740
       6    H2      19.852746   21.483789   23.146067 H          1 MOL1         0.0740
       7    C3      19.886131   20.244013   21.345164 C.3        1 MOL1        -0.1882
       8    H3      19.178913   19.923584   20.567692 H          1 MOL1         0.0742
       9    H4      20.678560   20.805134   20.830726 H          1 MOL1         0.0742
      10    C4      20.518248   19.003590   22.020813 C.3        1 MOL1        -0.1880
      11    H5      21.218403   19.327328   22.802890 H          1 MOL1         0.0742
      12    H6      21.115737   18.474486   21.267565 H          1 MOL1         0.0742
      13    C5      19.473818   18.032150   22.623713 C.3        1 MOL1        -0.1880
      14    H7      18.877698   18.559095   23.379391 H          1 MOL1         0.0742
      15    H8      18.772586   17.709979   21.841931 H          1 MOL1         0.0742
      16    C6      20.105877   16.790321   23.294886 C.3        1 MOL1        -0.1856
      17    H9      19.314799   16.229508   23.811539 H          1 MOL1         0.0742
      18    H10     20.816763   17.108554   24.069911 H          1 MOL1         0.0742
      19    C7      20.811325   15.845363   22.297865 C.3        1 MOL1        -0.2871
      20    H11     20.128341   15.541527   21.493912 H          1 MOL1         0.0754
      21    H12     21.156310   14.937265   22.809002 H          1 MOL1         0.0754
      22    H13     21.688218   16.322795   21.843394 H          1 MOL1         0.0754
@<TRIPOS>BOND
    1     1     2    1
    2     1     3    2
    3     1     4    1
    4     4     5    1
    5     4     6    1
    6     4     7    1
    7     7     8    1
    8     7     9    1
    9     7    10    1
   10    10    11    1
   11    10    12    1
   12    10    13    1
   13    13    14    1
   14    13    15    1
   15    13    16    1
   16    16    17    1
   17    16    18    1
   18    16    19    1
   19    19    20    1
   20    19    21    1
   21    19    22    1
@<TRIPOS>SUBSTRUCTURE
       1 MOL1            1 RESIDUE      1      MOL     
@<SCITEGIC>MOL_PROPERTY
VConf Rank
SciTegic.value.IntegerValue
106

@<SCITEGIC>MOL_PROPERTY
Conf_Id
SciTegic.value.IntegerValue
28

@<SCITEGIC>MOL_PROPERTY
Delta U+W
SciTegic.value.DoubleValue
0.351

@<SCITEGIC>MOL_PROPERTY
U+W
SciTegic.value.DoubleValue
-52.808

@<SCITEGIC>MOL_PROPERTY
Grad RMS
SciTegic.value.DoubleValue
0.000000

@<SCITEGIC>MOL_PROPERTY
U
SciTegic.value.DoubleValue
7.689

@<SCITEGIC>MOL_PROPERTY
W
SciTegic.value.DoubleValue
-60.498

@<SCITEGIC>MOL_PROPERTY
W(PB)
SciTegic.value.DoubleValue
-62.768

@<SCITEGIC>MOL_PROPERTY
W(SA)
SciTegic.value.DoubleValue
2.270

@<SCITEGIC>MOL_PROPERTY
Valence
SciTegic.value.DoubleValue
8.197

@<SCITEGIC>MOL_PROPERTY
Coulomb
SciTegic.value.DoubleValue
-1.561

@<SCITEGIC>MOL_PROPERTY
VdW
SciTegic.value.DoubleValue
1.053

@<SCITEGIC>MOL_PROPERTY
VdW6
SciTegic.value.DoubleValue
-7.737

@<SCITEGIC>MOL_PROPERTY
VdW12
SciTegic.value.DoubleValue
8.791

@<SCITEGIC>MOL_PROPERTY
Bond
SciTegic.value.DoubleValue
0.181

@<SCITEGIC>MOL_PROPERTY
Angle
SciTegic.value.DoubleValue
2.780

@<SCITEGIC>MOL_PROPERTY
Pdih
SciTegic.value.DoubleValue
5.235

@<SCITEGIC>MOL_PROPERTY
Idih
SciTegic.value.DoubleValue
0.001

@<SCITEGIC>MOL_PROPERTY
Tether
SciTegic.value.DoubleValue
0.000

@<TRIPOS>MOLECULE
guest-s21_confgen4.mol2 : confsearch ligand conformer 107
          22          21           1
SMALL
USER_CHARGES
 
@<TRIPOS>ATOM
       1    C1      17.572799   16.493836   23.919614 C.2        1 MOL1         0.6145
       2    O1      16.821389   16.949649   24.758714 O.co2      1 MOL1        -0.6735
       3    O2      17.234536   15.677576   23.085496 O.co2      1 MOL1        -0.6735
       4    C2      19.014800   16.988364   23.899746 C.3        1 MOL1        -0.1985
       5    H1      19.652041   16.166859   23.550884 H          1 MOL1         0.0740
       6    H2      19.311695   17.213722   24.931097 H          1 MOL1         0.0740
       7    C3      19.211029   18.234678   23.001704 C.3        1 MOL1        -0.1882
       8    H3      18.888595   17.990441   21.980992 H          1 MOL1         0.0742
       9    H4      18.560047   19.044797   23.358403 H          1 MOL1         0.0742
      10    C4      20.681986   18.711453   22.996257 C.3        1 MOL1        -0.1880
      11    H5      21.326793   17.920113   22.590062 H          1 MOL1         0.0742
      12    H6      21.007523   18.876341   24.032501 H          1 MOL1         0.0742
      13    C5      20.903029   20.019189   22.199685 C.3        1 MOL1        -0.1880
      14    H7      20.261383   20.811887   22.608161 H          1 MOL1         0.0742
      15    H8      21.939654   20.349042   22.353092 H          1 MOL1         0.0742
      16    C6      20.644093   19.868869   20.683556 C.3        1 MOL1        -0.1856
      17    H9      19.591327   19.615267   20.502645 H          1 MOL1         0.0742
      18    H10     21.246745   19.041190   20.284851 H          1 MOL1         0.0742
      19    C7      20.985562   21.164630   19.920591 C.3        1 MOL1        -0.2871
      20    H11     22.043625   21.428685   20.047607 H          1 MOL1         0.0754
      21    H12     20.376797   22.004210   20.281002 H          1 MOL1         0.0754
      22    H13     20.793449   21.043097   18.846631 H          1 MOL1         0.0754
@<TRIPOS>BOND
    1     1     2    1
    2     1     3    2
    3     1     4    1
    4     4     5    1
    5     4     6    1
    6     4     7    1
    7     7     8    1
    8     7     9    1
    9     7    10    1
   10    10    11    1
   11    10    12    1
   12    10    13    1
   13    13    14    1
   14    13    15    1
   15    13    16    1
   16    16    17    1
   17    16    18    1
   18    16    19    1
   19    19    20    1
   20    19    21    1
   21    19    22    1
@<TRIPOS>SUBSTRUCTURE
       1 MOL1            1 RESIDUE      1      MOL     
@<SCITEGIC>MOL_PROPERTY
VConf Rank
SciTegic.value.IntegerValue
107

@<SCITEGIC>MOL_PROPERTY
Conf_Id
SciTegic.value.IntegerValue
50

@<SCITEGIC>MOL_PROPERTY
Delta U+W
SciTegic.value.DoubleValue
-0.486

@<SCITEGIC>MOL_PROPERTY
U+W
SciTegic.value.DoubleValue
-53.646

@<SCITEGIC>MOL_PROPERTY
Grad RMS
SciTegic.value.DoubleValue
0.000000

@<SCITEGIC>MOL_PROPERTY
U
SciTegic.value.DoubleValue
7.026

@<SCITEGIC>MOL_PROPERTY
W
SciTegic.value.DoubleValue
-60.672

@<SCITEGIC>MOL_PROPERTY
W(PB)
SciTegic.value.DoubleValue
-62.964

@<SCITEGIC>MOL_PROPERTY
W(SA)
SciTegic.value.DoubleValue
2.292

@<SCITEGIC>MOL_PROPERTY
Valence
SciTegic.value.DoubleValue
7.637

@<SCITEGIC>MOL_PROPERTY
Coulomb
SciTegic.value.DoubleValue
-1.488

@<SCITEGIC>MOL_PROPERTY
VdW
SciTegic.value.DoubleValue
0.877

@<SCITEGIC>MOL_PROPERTY
VdW6
SciTegic.value.DoubleValue
-7.165

@<SCITEGIC>MOL_PROPERTY
VdW12
SciTegic.value.DoubleValue
8.043

@<SCITEGIC>MOL_PROPERTY
Bond
SciTegic.value.DoubleValue
0.134

@<SCITEGIC>MOL_PROPERTY
Angle
SciTegic.value.DoubleValue
2.513

@<SCITEGIC>MOL_PROPERTY
Pdih
SciTegic.value.DoubleValue
4.990

@<SCITEGIC>MOL_PROPERTY
Idih
SciTegic.value.DoubleValue
0.001

@<SCITEGIC>MOL_PROPERTY
Tether
SciTegic.value.DoubleValue
0.000

@<TRIPOS>MOLECULE
guest-s21_confgen4.mol2 : confsearch ligand conformer 108
          22          21           1
SMALL
USER_CHARGES
 
@<TRIPOS>ATOM
       1    C1      20.470455   18.782031   25.916790 C.2        1 MOL1         0.6145
       2    O1      20.794755   17.691331   26.343024 O.co2      1 MOL1        -0.6735
       3    O2      19.703553   19.528606   26.492066 O.co2      1 MOL1        -0.6735
       4    C2      21.041516   19.229916   24.576038 C.3        1 MOL1        -0.1985
       5    H1      22.048721   18.807646   24.476837 H          1 MOL1         0.0740
       6    H2      21.148036   20.321155   24.598422 H          1 MOL1         0.0740
       7    C3      20.161729   18.803874   23.374888 C.3        1 MOL1        -0.1882
       8    H3      20.057327   17.710076   23.371776 H          1 MOL1         0.0742
       9    H4      19.154949   19.221451   23.507141 H          1 MOL1         0.0742
      10    C4      20.761478   19.274546   22.029586 C.3        1 MOL1        -0.1880
      11    H5      21.794878   18.909717   21.952473 H          1 MOL1         0.0742
      12    H6      20.817022   20.371629   22.011940 H          1 MOL1         0.0742
      13    C5      19.972967   18.776178   20.795308 C.3        1 MOL1        -0.1880
      14    H7      20.534425   19.047674   19.890885 H          1 MOL1         0.0742
      15    H8      19.920587   17.678927   20.810459 H          1 MOL1         0.0742
      16    C6      18.547381   19.364451   20.695669 C.3        1 MOL1        -0.1856
      17    H9      18.595573   20.461465   20.733686 H          1 MOL1         0.0742
      18    H10     17.943220   19.040025   21.553046 H          1 MOL1         0.0742
      19    C7      17.845344   18.927658   19.394103 C.3        1 MOL1        -0.2871
      20    H11     17.759022   17.834363   19.342706 H          1 MOL1         0.0754
      21    H12     18.403184   19.269556   18.512470 H          1 MOL1         0.0754
      22    H13     16.833748   19.350484   19.339682 H          1 MOL1         0.0754
@<TRIPOS>BOND
    1     1     2    1
    2     1     3    2
    3     1     4    1
    4     4     5    1
    5     4     6    1
    6     4     7    1
    7     7     8    1
    8     7     9    1
    9     7    10    1
   10    10    11    1
   11    10    12    1
   12    10    13    1
   13    13    14    1
   14    13    15    1
   15    13    16    1
   16    16    17    1
   17    16    18    1
   18    16    19    1
   19    19    20    1
   20    19    21    1
   21    19    22    1
@<TRIPOS>SUBSTRUCTURE
       1 MOL1            1 RESIDUE      1      MOL     
@<SCITEGIC>MOL_PROPERTY
VConf Rank
SciTegic.value.IntegerValue
108

@<SCITEGIC>MOL_PROPERTY
Conf_Id
SciTegic.value.IntegerValue
51

@<SCITEGIC>MOL_PROPERTY
Delta U+W
SciTegic.value.DoubleValue
-0.517

@<SCITEGIC>MOL_PROPERTY
U+W
SciTegic.value.DoubleValue
-53.677

@<SCITEGIC>MOL_PROPERTY
Grad RMS
SciTegic.value.DoubleValue
0.000000

@<SCITEGIC>MOL_PROPERTY
U
SciTegic.value.DoubleValue
7.026

@<SCITEGIC>MOL_PROPERTY
W
SciTegic.value.DoubleValue
-60.703

@<SCITEGIC>MOL_PROPERTY
W(PB)
SciTegic.value.DoubleValue
-63.007

@<SCITEGIC>MOL_PROPERTY
W(SA)
SciTegic.value.DoubleValue
2.304

@<SCITEGIC>MOL_PROPERTY
Valence
SciTegic.value.DoubleValue
7.638

@<SCITEGIC>MOL_PROPERTY
Coulomb
SciTegic.value.DoubleValue
-1.488

@<SCITEGIC>MOL_PROPERTY
VdW
SciTegic.value.DoubleValue
0.877

@<SCITEGIC>MOL_PROPERTY
VdW6
SciTegic.value.DoubleValue
-7.165

@<SCITEGIC>MOL_PROPERTY
VdW12
SciTegic.value.DoubleValue
8.042

@<SCITEGIC>MOL_PROPERTY
Bond
SciTegic.value.DoubleValue
0.134

@<SCITEGIC>MOL_PROPERTY
Angle
SciTegic.value.DoubleValue
2.513

@<SCITEGIC>MOL_PROPERTY
Pdih
SciTegic.value.DoubleValue
4.990

@<SCITEGIC>MOL_PROPERTY
Idih
SciTegic.value.DoubleValue
0.001

@<SCITEGIC>MOL_PROPERTY
Tether
SciTegic.value.DoubleValue
0.000

@<TRIPOS>MOLECULE
guest-s21_confgen4.mol2 : confsearch ligand conformer 109
          22          21           1
SMALL
USER_CHARGES
 
@<TRIPOS>ATOM
       1    C1      22.424790   17.384794   20.398498 C.2        1 MOL1         0.6145
       2    O1      21.971325   16.671638   19.525183 O.co2      1 MOL1        -0.6735
       3    O2      23.099803   18.371019   20.178252 O.co2      1 MOL1        -0.6735
       4    C2      22.145827   17.008595   21.851009 C.3        1 MOL1        -0.1985
       5    H1      22.878340   17.515387   22.490925 H          1 MOL1         0.0740
       6    H2      22.327567   15.932078   21.951633 H          1 MOL1         0.0740
       7    C3      20.705260   17.336929   22.322130 C.3        1 MOL1        -0.1882
       8    H3      19.983321   16.845494   21.655085 H          1 MOL1         0.0742
       9    H4      20.551789   16.910960   23.322900 H          1 MOL1         0.0742
      10    C4      20.426455   18.856090   22.366906 C.3        1 MOL1        -0.1880
      11    H5      20.561318   19.286824   21.365064 H          1 MOL1         0.0742
      12    H6      21.158736   19.344322   23.024484 H          1 MOL1         0.0742
      13    C5      18.998394   19.160747   22.868181 C.3        1 MOL1        -0.1880
      14    H7      18.266714   18.672214   22.210087 H          1 MOL1         0.0742
      15    H8      18.861981   18.733480   23.871123 H          1 MOL1         0.0742
      16    C6      18.718961   20.677654   22.912427 C.3        1 MOL1        -0.1856
      17    H9      18.852720   21.108277   21.910342 H          1 MOL1         0.0742
      18    H10     19.447996   21.169583   23.571196 H          1 MOL1         0.0742
      19    C7      17.291817   20.977994   23.412839 C.3        1 MOL1        -0.2871
      20    H11     16.540682   20.523626   22.753486 H          1 MOL1         0.0754
      21    H12     17.110435   22.060379   23.437912 H          1 MOL1         0.0754
      22    H13     17.140400   20.585345   24.426888 H          1 MOL1         0.0754
@<TRIPOS>BOND
    1     1     2    1
    2     1     3    2
    3     1     4    1
    4     4     5    1
    5     4     6    1
    6     4     7    1
    7     7     8    1
    8     7     9    1
    9     7    10    1
   10    10    11    1
   11    10    12    1
   12    10    13    1
   13    13    14    1
   14    13    15    1
   15    13    16    1
   16    16    17    1
   17    16    18    1
   18    16    19    1
   19    19    20    1
   20    19    21    1
   21    19    22    1
@<TRIPOS>SUBSTRUCTURE
       1 MOL1            1 RESIDUE      1      MOL     
@<SCITEGIC>MOL_PROPERTY
VConf Rank
SciTegic.value.IntegerValue
109

@<SCITEGIC>MOL_PROPERTY
Conf_Id
SciTegic.value.IntegerValue
43

@<SCITEGIC>MOL_PROPERTY
Delta U+W
SciTegic.value.DoubleValue
-0.129

@<SCITEGIC>MOL_PROPERTY
U+W
SciTegic.value.DoubleValue
-53.289

@<SCITEGIC>MOL_PROPERTY
Grad RMS
SciTegic.value.DoubleValue
0.000000

@<SCITEGIC>MOL_PROPERTY
U
SciTegic.value.DoubleValue
7.937

@<SCITEGIC>MOL_PROPERTY
W
SciTegic.value.DoubleValue
-61.225

@<SCITEGIC>MOL_PROPERTY
W(PB)
SciTegic.value.DoubleValue
-63.523

@<SCITEGIC>MOL_PROPERTY
W(SA)
SciTegic.value.DoubleValue
2.297

@<SCITEGIC>MOL_PROPERTY
Valence
SciTegic.value.DoubleValue
7.358

@<SCITEGIC>MOL_PROPERTY
Coulomb
SciTegic.value.DoubleValue
-0.022

@<SCITEGIC>MOL_PROPERTY
VdW
SciTegic.value.DoubleValue
0.601

@<SCITEGIC>MOL_PROPERTY
VdW6
SciTegic.value.DoubleValue
-7.363

@<SCITEGIC>MOL_PROPERTY
VdW12
SciTegic.value.DoubleValue
7.964

@<SCITEGIC>MOL_PROPERTY
Bond
SciTegic.value.DoubleValue
0.121

@<SCITEGIC>MOL_PROPERTY
Angle
SciTegic.value.DoubleValue
2.425

@<SCITEGIC>MOL_PROPERTY
Pdih
SciTegic.value.DoubleValue
4.811

@<SCITEGIC>MOL_PROPERTY
Idih
SciTegic.value.DoubleValue
0.000

@<SCITEGIC>MOL_PROPERTY
Tether
SciTegic.value.DoubleValue
0.000

@<TRIPOS>MOLECULE
guest-s21_confgen4.mol2 : confsearch ligand conformer 110
          22          21           1
SMALL
USER_CHARGES
 
@<TRIPOS>ATOM
       1    C1      19.284545   22.039329   20.593161 C.2        1 MOL1         0.6145
       2    O1      20.330130   22.498442   20.177386 O.co2      1 MOL1        -0.6735
       3    O2      18.564571   22.615844   21.384401 O.co2      1 MOL1        -0.6735
       4    C2      18.844545   20.671799   20.077998 C.3        1 MOL1        -0.1985
       5    H1      18.983892   20.670691   18.990513 H          1 MOL1         0.0740
       6    H2      17.769009   20.558326   20.260342 H          1 MOL1         0.0740
       7    C3      19.621685   19.483118   20.700964 C.3        1 MOL1        -0.1882
       8    H3      19.340105   18.559569   20.177216 H          1 MOL1         0.0742
       9    H4      20.698624   19.625260   20.534680 H          1 MOL1         0.0742
      10    C4      19.342779   19.317240   22.211688 C.3        1 MOL1        -0.1880
      11    H5      18.263780   19.188652   22.373676 H          1 MOL1         0.0742
      12    H6      19.638046   20.231389   22.745127 H          1 MOL1         0.0742
      13    C5      20.101388   18.110105   22.803967 C.3        1 MOL1        -0.1880
      14    H7      19.805678   17.194241   22.274054 H          1 MOL1         0.0742
      15    H8      21.180286   18.239461   22.641626 H          1 MOL1         0.0742
      16    C6      19.823952   17.944274   24.312801 C.3        1 MOL1        -0.1856
      17    H9      18.745710   17.812954   24.478970 H          1 MOL1         0.0742
      18    H10     20.120253   18.858002   24.846479 H          1 MOL1         0.0742
      19    C7      20.583632   16.738283   24.900874 C.3        1 MOL1        -0.2871
      20    H11     20.282947   15.805444   24.406105 H          1 MOL1         0.0754
      21    H12     20.375004   16.635404   25.973709 H          1 MOL1         0.0754
      22    H13     21.667826   16.858410   24.776404 H          1 MOL1         0.0754
@<TRIPOS>BOND
    1     1     2    1
    2     1     3    2
    3     1     4    1
    4     4     5    1
    5     4     6    1
    6     4     7    1
    7     7     8    1
    8     7     9    1
    9     7    10    1
   10    10    11    1
   11    10    12    1
   12    10    13    1
   13    13    14    1
   14    13    15    1
   15    13    16    1
   16    16    17    1
   17    16    18    1
   18    16    19    1
   19    19    20    1
   20    19    21    1
   21    19    22    1
@<TRIPOS>SUBSTRUCTURE
       1 MOL1            1 RESIDUE      1      MOL     
@<SCITEGIC>MOL_PROPERTY
VConf Rank
SciTegic.value.IntegerValue
110

@<SCITEGIC>MOL_PROPERTY
Conf_Id
SciTegic.value.IntegerValue
44

@<SCITEGIC>MOL_PROPERTY
Delta U+W
SciTegic.value.DoubleValue
-0.155

@<SCITEGIC>MOL_PROPERTY
U+W
SciTegic.value.DoubleValue
-53.314

@<SCITEGIC>MOL_PROPERTY
Grad RMS
SciTegic.value.DoubleValue
0.000000

@<SCITEGIC>MOL_PROPERTY
U
SciTegic.value.DoubleValue
7.937

@<SCITEGIC>MOL_PROPERTY
W
SciTegic.value.DoubleValue
-61.252

@<SCITEGIC>MOL_PROPERTY
W(PB)
SciTegic.value.DoubleValue
-63.556

@<SCITEGIC>MOL_PROPERTY
W(SA)
SciTegic.value.DoubleValue
2.304

@<SCITEGIC>MOL_PROPERTY
Valence
SciTegic.value.DoubleValue
7.358

@<SCITEGIC>MOL_PROPERTY
Coulomb
SciTegic.value.DoubleValue
-0.021

@<SCITEGIC>MOL_PROPERTY
VdW
SciTegic.value.DoubleValue
0.600

@<SCITEGIC>MOL_PROPERTY
VdW6
SciTegic.value.DoubleValue
-7.363

@<SCITEGIC>MOL_PROPERTY
VdW12
SciTegic.value.DoubleValue
7.964

@<SCITEGIC>MOL_PROPERTY
Bond
SciTegic.value.DoubleValue
0.121

@<SCITEGIC>MOL_PROPERTY
Angle
SciTegic.value.DoubleValue
2.425

@<SCITEGIC>MOL_PROPERTY
Pdih
SciTegic.value.DoubleValue
4.811

@<SCITEGIC>MOL_PROPERTY
Idih
SciTegic.value.DoubleValue
0.001

@<SCITEGIC>MOL_PROPERTY
Tether
SciTegic.value.DoubleValue
0.000

@<TRIPOS>MOLECULE
guest-s21_confgen4.mol2 : confsearch ligand conformer 111
          22          21           1
SMALL
USER_CHARGES
 
@<TRIPOS>ATOM
       1    C1      21.337585   16.402792   24.066960 C.2        1 MOL1         0.6145
       2    O1      20.540340   15.753112   24.714448 O.co2      1 MOL1        -0.6735
       3    O2      22.371285   16.848263   24.525095 O.co2      1 MOL1        -0.6735
       4    C2      21.031127   16.655546   22.593356 C.3        1 MOL1        -0.1985
       5    H1      20.707034   15.702615   22.158711 H          1 MOL1         0.0740
       6    H2      21.961464   16.936195   22.084829 H          1 MOL1         0.0740
       7    C3      19.941890   17.732416   22.349346 C.3        1 MOL1        -0.1882
       8    H3      19.684028   17.730120   21.282731 H          1 MOL1         0.0742
       9    H4      19.029839   17.458003   22.897309 H          1 MOL1         0.0742
      10    C4      20.401792   19.148523   22.771649 C.3        1 MOL1        -0.1880
      11    H5      21.289119   19.438249   22.192415 H          1 MOL1         0.0742
      12    H6      20.713857   19.126964   23.824807 H          1 MOL1         0.0742
      13    C5      19.303629   20.226704   22.612309 C.3        1 MOL1        -0.1880
      14    H7      18.416408   19.936454   23.191541 H          1 MOL1         0.0742
      15    H8      19.669901   21.163411   23.054269 H          1 MOL1         0.0742
      16    C6      18.904016   20.489218   21.142676 C.3        1 MOL1        -0.1856
      17    H9      18.459607   19.586341   20.703896 H          1 MOL1         0.0742
      18    H10     19.799474   20.726166   20.551742 H          1 MOL1         0.0742
      19    C7      17.894654   21.649498   21.030090 C.3        1 MOL1        -0.2871
      20    H11     16.977090   21.427103   21.590449 H          1 MOL1         0.0754
      21    H12     17.618343   21.821364   19.981674 H          1 MOL1         0.0754
      22    H13     18.320575   22.581100   21.425144 H          1 MOL1         0.0754
@<TRIPOS>BOND
    1     1     2    1
    2     1     3    2
    3     1     4    1
    4     4     5    1
    5     4     6    1
    6     4     7    1
    7     7     8    1
    8     7     9    1
    9     7    10    1
   10    10    11    1
   11    10    12    1
   12    10    13    1
   13    13    14    1
   14    13    15    1
   15    13    16    1
   16    16    17    1
   17    16    18    1
   18    16    19    1
   19    19    20    1
   20    19    21    1
   21    19    22    1
@<TRIPOS>SUBSTRUCTURE
       1 MOL1            1 RESIDUE      1      MOL     
@<SCITEGIC>MOL_PROPERTY
VConf Rank
SciTegic.value.IntegerValue
111

@<SCITEGIC>MOL_PROPERTY
Conf_Id
SciTegic.value.IntegerValue
53

@<SCITEGIC>MOL_PROPERTY
Delta U+W
SciTegic.value.DoubleValue
0.723

@<SCITEGIC>MOL_PROPERTY
U+W
SciTegic.value.DoubleValue
-52.436

@<SCITEGIC>MOL_PROPERTY
Grad RMS
SciTegic.value.DoubleValue
0.000000

@<SCITEGIC>MOL_PROPERTY
U
SciTegic.value.DoubleValue
8.587

@<SCITEGIC>MOL_PROPERTY
W
SciTegic.value.DoubleValue
-61.022

@<SCITEGIC>MOL_PROPERTY
W(PB)
SciTegic.value.DoubleValue
-63.285

@<SCITEGIC>MOL_PROPERTY
W(SA)
SciTegic.value.DoubleValue
2.263

@<SCITEGIC>MOL_PROPERTY
Valence
SciTegic.value.DoubleValue
7.933

@<SCITEGIC>MOL_PROPERTY
Coulomb
SciTegic.value.DoubleValue
-0.124

@<SCITEGIC>MOL_PROPERTY
VdW
SciTegic.value.DoubleValue
0.778

@<SCITEGIC>MOL_PROPERTY
VdW6
SciTegic.value.DoubleValue
-7.981

@<SCITEGIC>MOL_PROPERTY
VdW12
SciTegic.value.DoubleValue
8.759

@<SCITEGIC>MOL_PROPERTY
Bond
SciTegic.value.DoubleValue
0.160

@<SCITEGIC>MOL_PROPERTY
Angle
SciTegic.value.DoubleValue
2.698

@<SCITEGIC>MOL_PROPERTY
Pdih
SciTegic.value.DoubleValue
5.074

@<SCITEGIC>MOL_PROPERTY
Idih
SciTegic.value.DoubleValue
0.001

@<SCITEGIC>MOL_PROPERTY
Tether
SciTegic.value.DoubleValue
0.000

@<TRIPOS>MOLECULE
guest-s21_confgen4.mol2 : confsearch ligand conformer 112
          22          21           1
SMALL
USER_CHARGES
 
@<TRIPOS>ATOM
       1    C1      18.161279   21.912444   22.087963 C.2        1 MOL1         0.6145
       2    O1      18.269394   22.323347   20.949527 O.co2      1 MOL1        -0.6735
       3    O2      17.500891   22.467763   22.943586 O.co2      1 MOL1        -0.6735
       4    C2      18.875223   20.617137   22.457372 C.3        1 MOL1        -0.1985
       5    H1      19.147123   20.668219   23.518382 H          1 MOL1         0.0740
       6    H2      19.805126   20.575075   21.879237 H          1 MOL1         0.0740
       7    C3      18.014004   19.358204   22.184380 C.3        1 MOL1        -0.1882
       8    H3      17.034713   19.490797   22.664827 H          1 MOL1         0.0742
       9    H4      17.819085   19.280815   21.105828 H          1 MOL1         0.0742
      10    C4      18.636907   18.034916   22.695814 C.3        1 MOL1        -0.1880
      11    H5      17.918365   17.229944   22.489258 H          1 MOL1         0.0742
      12    H6      18.743945   18.065773   23.788767 H          1 MOL1         0.0742
      13    C5      19.986605   17.658332   22.033843 C.3        1 MOL1        -0.1880
      14    H7      20.021572   16.567120   21.911256 H          1 MOL1         0.0742
      15    H8      20.041478   18.081257   21.021377 H          1 MOL1         0.0742
      16    C6      21.217844   18.087904   22.864668 C.3        1 MOL1        -0.1856
      17    H9      21.178015   17.611304   23.853840 H          1 MOL1         0.0742
      18    H10     21.208616   19.170657   23.037657 H          1 MOL1         0.0742
      19    C7      22.535569   17.698377   22.165238 C.3        1 MOL1        -0.2871
      20    H11     22.594254   16.612590   22.013722 H          1 MOL1         0.0754
      21    H12     23.399398   18.003398   22.770046 H          1 MOL1         0.0754
      22    H13     22.618584   18.186494   21.185336 H          1 MOL1         0.0754
@<TRIPOS>BOND
    1     1     2    1
    2     1     3    2
    3     1     4    1
    4     4     5    1
    5     4     6    1
    6     4     7    1
    7     7     8    1
    8     7     9    1
    9     7    10    1
   10    10    11    1
   11    10    12    1
   12    10    13    1
   13    13    14    1
   14    13    15    1
   15    13    16    1
   16    16    17    1
   17    16    18    1
   18    16    19    1
   19    19    20    1
   20    19    21    1
   21    19    22    1
@<TRIPOS>SUBSTRUCTURE
       1 MOL1            1 RESIDUE      1      MOL     
@<SCITEGIC>MOL_PROPERTY
VConf Rank
SciTegic.value.IntegerValue
112

@<SCITEGIC>MOL_PROPERTY
Conf_Id
SciTegic.value.IntegerValue
5

@<SCITEGIC>MOL_PROPERTY
Delta U+W
SciTegic.value.DoubleValue
2.167

@<SCITEGIC>MOL_PROPERTY
U+W
SciTegic.value.DoubleValue
-50.993

@<SCITEGIC>MOL_PROPERTY
Grad RMS
SciTegic.value.DoubleValue
0.000000

@<SCITEGIC>MOL_PROPERTY
U
SciTegic.value.DoubleValue
10.045

@<SCITEGIC>MOL_PROPERTY
W
SciTegic.value.DoubleValue
-61.037

@<SCITEGIC>MOL_PROPERTY
W(PB)
SciTegic.value.DoubleValue
-63.303

@<SCITEGIC>MOL_PROPERTY
W(SA)
SciTegic.value.DoubleValue
2.266

@<SCITEGIC>MOL_PROPERTY
Valence
SciTegic.value.DoubleValue
10.100

@<SCITEGIC>MOL_PROPERTY
Coulomb
SciTegic.value.DoubleValue
-0.883

@<SCITEGIC>MOL_PROPERTY
VdW
SciTegic.value.DoubleValue
0.828

@<SCITEGIC>MOL_PROPERTY
VdW6
SciTegic.value.DoubleValue
-8.177

@<SCITEGIC>MOL_PROPERTY
VdW12
SciTegic.value.DoubleValue
9.005

@<SCITEGIC>MOL_PROPERTY
Bond
SciTegic.value.DoubleValue
0.182

@<SCITEGIC>MOL_PROPERTY
Angle
SciTegic.value.DoubleValue
2.988

@<SCITEGIC>MOL_PROPERTY
Pdih
SciTegic.value.DoubleValue
6.930

@<SCITEGIC>MOL_PROPERTY
Idih
SciTegic.value.DoubleValue
0.001

@<SCITEGIC>MOL_PROPERTY
Tether
SciTegic.value.DoubleValue
0.000

@<TRIPOS>MOLECULE
guest-s21_confgen4.mol2 : confsearch ligand conformer 113
          22          21           1
SMALL
USER_CHARGES
 
@<TRIPOS>ATOM
       1    C1      17.560337   21.308690   22.573567 C.2        1 MOL1         0.6145
       2    O1      17.398092   21.594204   23.743493 O.co2      1 MOL1        -0.6735
       3    O2      16.907577   21.787842   21.667530 O.co2      1 MOL1        -0.6735
       4    C2      18.625847   20.275636   22.225015 C.3        1 MOL1        -0.1985
       5    H1      19.444479   20.388540   22.944615 H          1 MOL1         0.0740
       6    H2      19.022657   20.516799   21.231706 H          1 MOL1         0.0740
       7    C3      18.084693   18.823828   22.248436 C.3        1 MOL1        -0.1882
       8    H3      17.765806   18.573625   23.269692 H          1 MOL1         0.0742
       9    H4      17.181903   18.774661   21.623956 H          1 MOL1         0.0742
      10    C4      19.090283   17.759020   21.742822 C.3        1 MOL1        -0.1880
      11    H5      19.338988   17.945055   20.689023 H          1 MOL1         0.0742
      12    H6      18.579170   16.786720   21.761330 H          1 MOL1         0.0742
      13    C5      20.384045   17.640036   22.587649 C.3        1 MOL1        -0.1880
      14    H7      20.185796   17.939540   23.625897 H          1 MOL1         0.0742
      15    H8      20.678612   16.582321   22.625906 H          1 MOL1         0.0742
      16    C6      21.569404   18.448045   22.010757 C.3        1 MOL1        -0.1856
      17    H9      21.308728   19.509799   21.926554 H          1 MOL1         0.0742
      18    H10     21.792456   18.097623   20.993581 H          1 MOL1         0.0742
      19    C7      22.830594   18.304467   22.886038 C.3        1 MOL1        -0.2871
      20    H11     22.647260   18.677557   23.902184 H          1 MOL1         0.0754
      21    H12     23.664429   18.877381   22.459984 H          1 MOL1         0.0754
      22    H13     23.142316   17.254186   22.957239 H          1 MOL1         0.0754
@<TRIPOS>BOND
    1     1     2    1
    2     1     3    2
    3     1     4    1
    4     4     5    1
    5     4     6    1
    6     4     7    1
    7     7     8    1
    8     7     9    1
    9     7    10    1
   10    10    11    1
   11    10    12    1
   12    10    13    1
   13    13    14    1
   14    13    15    1
   15    13    16    1
   16    16    17    1
   17    16    18    1
   18    16    19    1
   19    19    20    1
   20    19    21    1
   21    19    22    1
@<TRIPOS>SUBSTRUCTURE
       1 MOL1            1 RESIDUE      1      MOL     
@<SCITEGIC>MOL_PROPERTY
VConf Rank
SciTegic.value.IntegerValue
113

@<SCITEGIC>MOL_PROPERTY
Conf_Id
SciTegic.value.IntegerValue
6

@<SCITEGIC>MOL_PROPERTY
Delta U+W
SciTegic.value.DoubleValue
2.118

@<SCITEGIC>MOL_PROPERTY
U+W
SciTegic.value.DoubleValue
-51.042

@<SCITEGIC>MOL_PROPERTY
Grad RMS
SciTegic.value.DoubleValue
0.000000

@<SCITEGIC>MOL_PROPERTY
U
SciTegic.value.DoubleValue
10.045

@<SCITEGIC>MOL_PROPERTY
W
SciTegic.value.DoubleValue
-61.086

@<SCITEGIC>MOL_PROPERTY
W(PB)
SciTegic.value.DoubleValue
-63.356

@<SCITEGIC>MOL_PROPERTY
W(SA)
SciTegic.value.DoubleValue
2.270

@<SCITEGIC>MOL_PROPERTY
Valence
SciTegic.value.DoubleValue
10.100

@<SCITEGIC>MOL_PROPERTY
Coulomb
SciTegic.value.DoubleValue
-0.883

@<SCITEGIC>MOL_PROPERTY
VdW
SciTegic.value.DoubleValue
0.828

@<SCITEGIC>MOL_PROPERTY
VdW6
SciTegic.value.DoubleValue
-8.177

@<SCITEGIC>MOL_PROPERTY
VdW12
SciTegic.value.DoubleValue
9.004

@<SCITEGIC>MOL_PROPERTY
Bond
SciTegic.value.DoubleValue
0.182

@<SCITEGIC>MOL_PROPERTY
Angle
SciTegic.value.DoubleValue
2.988

@<SCITEGIC>MOL_PROPERTY
Pdih
SciTegic.value.DoubleValue
6.930

@<SCITEGIC>MOL_PROPERTY
Idih
SciTegic.value.DoubleValue
0.001

@<SCITEGIC>MOL_PROPERTY
Tether
SciTegic.value.DoubleValue
0.000

@<TRIPOS>MOLECULE
guest-s21_confgen4.mol2 : confsearch ligand conformer 114
          22          21           1
SMALL
USER_CHARGES
 
@<TRIPOS>ATOM
       1    C1      18.308491   19.282576   24.941945 C.2        1 MOL1         0.6145
       2    O1      18.771313   20.270479   25.477985 O.co2      1 MOL1        -0.6735
       3    O2      18.489336   18.152021   25.349616 O.co2      1 MOL1        -0.6735
       4    C2      17.393373   19.474501   23.733980 C.3        1 MOL1        -0.1985
       5    H1      16.522967   20.035777   24.093001 H          1 MOL1         0.0740
       6    H2      17.022506   18.495082   23.408343 H          1 MOL1         0.0740
       7    C3      18.026787   20.236011   22.535661 C.3        1 MOL1        -0.1882
       8    H3      17.210679   20.628300   21.913970 H          1 MOL1         0.0742
       9    H4      18.578366   21.114175   22.899201 H          1 MOL1         0.0742
      10    C4      18.938858   19.374430   21.627522 C.3        1 MOL1        -0.1880
      11    H5      19.198638   19.969307   20.741176 H          1 MOL1         0.0742
      12    H6      18.378850   18.503234   21.261136 H          1 MOL1         0.0742
      13    C5      20.243630   18.904002   22.309266 C.3        1 MOL1        -0.1880
      14    H7      20.752666   19.764214   22.765295 H          1 MOL1         0.0742
      15    H8      20.009110   18.202553   23.119842 H          1 MOL1         0.0742
      16    C6      21.193057   18.212390   21.308163 C.3        1 MOL1        -0.1856
      17    H9      21.444230   18.906515   20.494248 H          1 MOL1         0.0742
      18    H10     20.684670   17.352786   20.849864 H          1 MOL1         0.0742
      19    C7      22.490059   17.735702   21.992247 C.3        1 MOL1        -0.2871
      20    H11     23.034889   18.580936   22.432825 H          1 MOL1         0.0754
      21    H12     23.152750   17.245734   21.267128 H          1 MOL1         0.0754
      22    H13     22.270261   17.015806   22.791585 H          1 MOL1         0.0754
@<TRIPOS>BOND
    1     1     2    1
    2     1     3    2
    3     1     4    1
    4     4     5    1
    5     4     6    1
    6     4     7    1
    7     7     8    1
    8     7     9    1
    9     7    10    1
   10    10    11    1
   11    10    12    1
   12    10    13    1
   13    13    14    1
   14    13    15    1
   15    13    16    1
   16    16    17    1
   17    16    18    1
   18    16    19    1
   19    19    20    1
   20    19    21    1
   21    19    22    1
@<TRIPOS>SUBSTRUCTURE
       1 MOL1            1 RESIDUE      1      MOL     
@<SCITEGIC>MOL_PROPERTY
VConf Rank
SciTegic.value.IntegerValue
114

@<SCITEGIC>MOL_PROPERTY
Conf_Id
SciTegic.value.IntegerValue
8

@<SCITEGIC>MOL_PROPERTY
Delta U+W
SciTegic.value.DoubleValue
1.886

@<SCITEGIC>MOL_PROPERTY
U+W
SciTegic.value.DoubleValue
-51.274

@<SCITEGIC>MOL_PROPERTY
Grad RMS
SciTegic.value.DoubleValue
0.000000

@<SCITEGIC>MOL_PROPERTY
U
SciTegic.value.DoubleValue
11.237

@<SCITEGIC>MOL_PROPERTY
W
SciTegic.value.DoubleValue
-62.510

@<SCITEGIC>MOL_PROPERTY
W(PB)
SciTegic.value.DoubleValue
-64.777

@<SCITEGIC>MOL_PROPERTY
W(SA)
SciTegic.value.DoubleValue
2.267

@<SCITEGIC>MOL_PROPERTY
Valence
SciTegic.value.DoubleValue
9.029

@<SCITEGIC>MOL_PROPERTY
Coulomb
SciTegic.value.DoubleValue
1.667

@<SCITEGIC>MOL_PROPERTY
VdW
SciTegic.value.DoubleValue
0.540

@<SCITEGIC>MOL_PROPERTY
VdW6
SciTegic.value.DoubleValue
-8.825

@<SCITEGIC>MOL_PROPERTY
VdW12
SciTegic.value.DoubleValue
9.365

@<SCITEGIC>MOL_PROPERTY
Bond
SciTegic.value.DoubleValue
0.186

@<SCITEGIC>MOL_PROPERTY
Angle
SciTegic.value.DoubleValue
3.195

@<SCITEGIC>MOL_PROPERTY
Pdih
SciTegic.value.DoubleValue
5.642

@<SCITEGIC>MOL_PROPERTY
Idih
SciTegic.value.DoubleValue
0.007

@<SCITEGIC>MOL_PROPERTY
Tether
SciTegic.value.DoubleValue
0.000

@<TRIPOS>MOLECULE
guest-s21_confgen4.mol2 : confsearch ligand conformer 115
          22          21           1
SMALL
USER_CHARGES
 
@<TRIPOS>ATOM
       1    C1      20.366426   16.651674   20.496117 C.2        1 MOL1         0.6145
       2    O1      19.379911   16.049173   20.871007 O.co2      1 MOL1        -0.6735
       3    O2      21.460591   16.137519   20.370594 O.co2      1 MOL1        -0.6735
       4    C2      20.219398   18.126934   20.133964 C.3        1 MOL1        -0.1985
       5    H1      19.153502   18.358762   20.029894 H          1 MOL1         0.0740
       6    H2      20.663555   18.263973   19.141155 H          1 MOL1         0.0740
       7    C3      20.898534   19.098656   21.137795 C.3        1 MOL1        -0.1882
       8    H3      21.976741   18.887703   21.154978 H          1 MOL1         0.0742
       9    H4      20.792943   20.128303   20.770363 H          1 MOL1         0.0742
      10    C4      20.353367   19.015611   22.585078 C.3        1 MOL1        -0.1880
      11    H5      20.967221   19.670779   23.215897 H          1 MOL1         0.0742
      12    H6      20.487230   17.996935   22.974056 H          1 MOL1         0.0742
      13    C5      18.865668   19.426858   22.707842 C.3        1 MOL1        -0.1880
      14    H7      18.724059   20.437581   22.301790 H          1 MOL1         0.0742
      15    H8      18.252004   18.753595   22.095415 H          1 MOL1         0.0742
      16    C6      18.330796   19.371449   24.157960 C.3        1 MOL1        -0.1856
      17    H9      18.485430   18.365381   24.571834 H          1 MOL1         0.0742
      18    H10     17.244431   19.534485   24.137827 H          1 MOL1         0.0742
      19    C7      18.971420   20.422879   25.090112 C.3        1 MOL1        -0.2871
      20    H11     20.040565   20.228681   25.240329 H          1 MOL1         0.0754
      21    H12     18.489776   20.404851   26.076312 H          1 MOL1         0.0754
      22    H13     18.858933   21.434047   24.677818 H          1 MOL1         0.0754
@<TRIPOS>BOND
    1     1     2    1
    2     1     3    2
    3     1     4    1
    4     4     5    1
    5     4     6    1
    6     4     7    1
    7     7     8    1
    8     7     9    1
    9     7    10    1
   10    10    11    1
   11    10    12    1
   12    10    13    1
   13    13    14    1
   14    13    15    1
   15    13    16    1
   16    16    17    1
   17    16    18    1
   18    16    19    1
   19    19    20    1
   20    19    21    1
   21    19    22    1
@<TRIPOS>SUBSTRUCTURE
       1 MOL1            1 RESIDUE      1      MOL     
@<SCITEGIC>MOL_PROPERTY
VConf Rank
SciTegic.value.IntegerValue
115

@<SCITEGIC>MOL_PROPERTY
Conf_Id
SciTegic.value.IntegerValue
93

@<SCITEGIC>MOL_PROPERTY
Delta U+W
SciTegic.value.DoubleValue
1.836

@<SCITEGIC>MOL_PROPERTY
U+W
SciTegic.value.DoubleValue
-51.323

@<SCITEGIC>MOL_PROPERTY
Grad RMS
SciTegic.value.DoubleValue
0.000000

@<SCITEGIC>MOL_PROPERTY
U
SciTegic.value.DoubleValue
10.427

@<SCITEGIC>MOL_PROPERTY
W
SciTegic.value.DoubleValue
-61.751

@<SCITEGIC>MOL_PROPERTY
W(PB)
SciTegic.value.DoubleValue
-63.980

@<SCITEGIC>MOL_PROPERTY
W(SA)
SciTegic.value.DoubleValue
2.230

@<SCITEGIC>MOL_PROPERTY
Valence
SciTegic.value.DoubleValue
8.446

@<SCITEGIC>MOL_PROPERTY
Coulomb
SciTegic.value.DoubleValue
1.306

@<SCITEGIC>MOL_PROPERTY
VdW
SciTegic.value.DoubleValue
0.676

@<SCITEGIC>MOL_PROPERTY
VdW6
SciTegic.value.DoubleValue
-8.928

@<SCITEGIC>MOL_PROPERTY
VdW12
SciTegic.value.DoubleValue
9.604

@<SCITEGIC>MOL_PROPERTY
Bond
SciTegic.value.DoubleValue
0.209

@<SCITEGIC>MOL_PROPERTY
Angle
SciTegic.value.DoubleValue
3.066

@<SCITEGIC>MOL_PROPERTY
Pdih
SciTegic.value.DoubleValue
5.170

@<SCITEGIC>MOL_PROPERTY
Idih
SciTegic.value.DoubleValue
0.001

@<SCITEGIC>MOL_PROPERTY
Tether
SciTegic.value.DoubleValue
0.000

@<TRIPOS>MOLECULE
guest-s21_confgen4.mol2 : confsearch ligand conformer 116
          22          21           1
SMALL
USER_CHARGES
 
@<TRIPOS>ATOM
       1    C1      17.909910   19.709676   20.008560 C.2        1 MOL1         0.6145
       2    O1      17.780208   18.988939   19.038498 O.co2      1 MOL1        -0.6735
       3    O2      18.368279   20.833812   19.953956 O.co2      1 MOL1        -0.6735
       4    C2      17.443256   19.183291   21.362929 C.3        1 MOL1        -0.1985
       5    H1      16.426018   18.797286   21.228947 H          1 MOL1         0.0740
       6    H2      17.364479   20.025698   22.059244 H          1 MOL1         0.0740
       7    C3      18.342793   18.063100   21.953822 C.3        1 MOL1        -0.1882
       8    H3      17.903064   17.706579   22.895025 H          1 MOL1         0.0742
       9    H4      18.332786   17.206200   21.266110 H          1 MOL1         0.0742
      10    C4      19.812835   18.481354   22.204367 C.3        1 MOL1        -0.1880
      11    H5      20.272114   18.806123   21.260697 H          1 MOL1         0.0742
      12    H6      20.367243   17.591504   22.528087 H          1 MOL1         0.0742
      13    C5      19.963463   19.598031   23.266340 C.3        1 MOL1        -0.1880
      14    H7      19.428793   20.494784   22.927375 H          1 MOL1         0.0742
      15    H8      19.488030   19.285029   24.205748 H          1 MOL1         0.0742
      16    C6      21.433828   19.994180   23.536682 C.3        1 MOL1        -0.1856
      17    H9      21.444847   20.880846   24.185432 H          1 MOL1         0.0742
      18    H10     21.916216   20.292840   22.595680 H          1 MOL1         0.0742
      19    C7      22.257274   18.876401   24.212933 C.3        1 MOL1        -0.2871
      20    H11     22.378869   18.010152   23.550984 H          1 MOL1         0.0754
      21    H12     21.774391   18.538041   25.138911 H          1 MOL1         0.0754
      22    H13     23.260484   19.240945   24.469012 H          1 MOL1         0.0754
@<TRIPOS>BOND
    1     1     2    1
    2     1     3    2
    3     1     4    1
    4     4     5    1
    5     4     6    1
    6     4     7    1
    7     7     8    1
    8     7     9    1
    9     7    10    1
   10    10    11    1
   11    10    12    1
   12    10    13    1
   13    13    14    1
   14    13    15    1
   15    13    16    1
   16    16    17    1
   17    16    18    1
   18    16    19    1
   19    19    20    1
   20    19    21    1
   21    19    22    1
@<TRIPOS>SUBSTRUCTURE
       1 MOL1            1 RESIDUE      1      MOL     
@<SCITEGIC>MOL_PROPERTY
VConf Rank
SciTegic.value.IntegerValue
116

@<SCITEGIC>MOL_PROPERTY
Conf_Id
SciTegic.value.IntegerValue
70

@<SCITEGIC>MOL_PROPERTY
Delta U+W
SciTegic.value.DoubleValue
1.803

@<SCITEGIC>MOL_PROPERTY
U+W
SciTegic.value.DoubleValue
-51.356

@<SCITEGIC>MOL_PROPERTY
Grad RMS
SciTegic.value.DoubleValue
0.000000

@<SCITEGIC>MOL_PROPERTY
U
SciTegic.value.DoubleValue
10.428

@<SCITEGIC>MOL_PROPERTY
W
SciTegic.value.DoubleValue
-61.784

@<SCITEGIC>MOL_PROPERTY
W(PB)
SciTegic.value.DoubleValue
-64.014

@<SCITEGIC>MOL_PROPERTY
W(SA)
SciTegic.value.DoubleValue
2.230

@<SCITEGIC>MOL_PROPERTY
Valence
SciTegic.value.DoubleValue
8.445

@<SCITEGIC>MOL_PROPERTY
Coulomb
SciTegic.value.DoubleValue
1.306

@<SCITEGIC>MOL_PROPERTY
VdW
SciTegic.value.DoubleValue
0.676

@<SCITEGIC>MOL_PROPERTY
VdW6
SciTegic.value.DoubleValue
-8.929

@<SCITEGIC>MOL_PROPERTY
VdW12
SciTegic.value.DoubleValue
9.605

@<SCITEGIC>MOL_PROPERTY
Bond
SciTegic.value.DoubleValue
0.209

@<SCITEGIC>MOL_PROPERTY
Angle
SciTegic.value.DoubleValue
3.066

@<SCITEGIC>MOL_PROPERTY
Pdih
SciTegic.value.DoubleValue
5.170

@<SCITEGIC>MOL_PROPERTY
Idih
SciTegic.value.DoubleValue
0.001

@<SCITEGIC>MOL_PROPERTY
Tether
SciTegic.value.DoubleValue
0.000

@<TRIPOS>MOLECULE
guest-s21_confgen4.mol2 : confsearch ligand conformer 117
          22          21           1
SMALL
USER_CHARGES
 
@<TRIPOS>ATOM
       1    C1      21.078449   21.498123   20.646889 C.2        1 MOL1         0.6145
       2    O1      20.623963   22.501869   21.159577 O.co2      1 MOL1        -0.6735
       3    O2      20.973263   21.240701   19.463864 O.co2      1 MOL1        -0.6735
       4    C2      21.840800   20.519014   21.535293 C.3        1 MOL1        -0.1985
       5    H1      22.516194   21.106972   22.167896 H          1 MOL1         0.0740
       6    H2      22.472041   19.887197   20.898754 H          1 MOL1         0.0740
       7    C3      20.929047   19.638827   22.429139 C.3        1 MOL1        -0.1882
       8    H3      21.557223   19.064086   23.122920 H          1 MOL1         0.0742
       9    H4      20.294262   20.292417   23.041920 H          1 MOL1         0.0742
      10    C4      20.054892   18.664053   21.604377 C.3        1 MOL1        -0.1880
      11    H5      20.703434   18.081831   20.935608 H          1 MOL1         0.0742
      12    H6      19.372706   19.231567   20.956415 H          1 MOL1         0.0742
      13    C5      19.238629   17.680508   22.476089 C.3        1 MOL1        -0.1880
      14    H7      18.749137   16.952996   21.814263 H          1 MOL1         0.0742
      15    H8      19.919264   17.106246   23.119381 H          1 MOL1         0.0742
      16    C6      18.162798   18.373221   23.342637 C.3        1 MOL1        -0.1856
      17    H9      17.514257   18.989872   22.705139 H          1 MOL1         0.0742
      18    H10     18.637233   19.049143   24.066100 H          1 MOL1         0.0742
      19    C7      17.303266   17.345276   24.105701 C.3        1 MOL1        -0.2871
      20    H11     16.781818   16.674876   23.409995 H          1 MOL1         0.0754
      21    H12     16.546692   17.852569   24.718326 H          1 MOL1         0.0754
      22    H13     17.924083   16.732434   24.772323 H          1 MOL1         0.0754
@<TRIPOS>BOND
    1     1     2    1
    2     1     3    2
    3     1     4    1
    4     4     5    1
    5     4     6    1
    6     4     7    1
    7     7     8    1
    8     7     9    1
    9     7    10    1
   10    10    11    1
   11    10    12    1
   12    10    13    1
   13    13    14    1
   14    13    15    1
   15    13    16    1
   16    16    17    1
   17    16    18    1
   18    16    19    1
   19    19    20    1
   20    19    21    1
   21    19    22    1
@<TRIPOS>SUBSTRUCTURE
       1 MOL1            1 RESIDUE      1      MOL     
@<SCITEGIC>MOL_PROPERTY
VConf Rank
SciTegic.value.IntegerValue
117

@<SCITEGIC>MOL_PROPERTY
Conf_Id
SciTegic.value.IntegerValue
85

@<SCITEGIC>MOL_PROPERTY
Delta U+W
SciTegic.value.DoubleValue
0.707

@<SCITEGIC>MOL_PROPERTY
U+W
SciTegic.value.DoubleValue
-52.452

@<SCITEGIC>MOL_PROPERTY
Grad RMS
SciTegic.value.DoubleValue
0.000000

@<SCITEGIC>MOL_PROPERTY
U
SciTegic.value.DoubleValue
8.925

@<SCITEGIC>MOL_PROPERTY
W
SciTegic.value.DoubleValue
-61.378

@<SCITEGIC>MOL_PROPERTY
W(PB)
SciTegic.value.DoubleValue
-63.661

@<SCITEGIC>MOL_PROPERTY
W(SA)
SciTegic.value.DoubleValue
2.283

@<SCITEGIC>MOL_PROPERTY
Valence
SciTegic.value.DoubleValue
7.881

@<SCITEGIC>MOL_PROPERTY
Coulomb
SciTegic.value.DoubleValue
0.349

@<SCITEGIC>MOL_PROPERTY
VdW
SciTegic.value.DoubleValue
0.695

@<SCITEGIC>MOL_PROPERTY
VdW6
SciTegic.value.DoubleValue
-8.049

@<SCITEGIC>MOL_PROPERTY
VdW12
SciTegic.value.DoubleValue
8.743

@<SCITEGIC>MOL_PROPERTY
Bond
SciTegic.value.DoubleValue
0.156

@<SCITEGIC>MOL_PROPERTY
Angle
SciTegic.value.DoubleValue
2.660

@<SCITEGIC>MOL_PROPERTY
Pdih
SciTegic.value.DoubleValue
5.064

@<SCITEGIC>MOL_PROPERTY
Idih
SciTegic.value.DoubleValue
0.001

@<SCITEGIC>MOL_PROPERTY
Tether
SciTegic.value.DoubleValue
0.000

@<TRIPOS>MOLECULE
guest-s21_confgen4.mol2 : confsearch ligand conformer 118
          22          21           1
SMALL
USER_CHARGES
 
@<TRIPOS>ATOM
       1    C1      19.786756   22.140487   21.686894 C.2        1 MOL1         0.6145
       2    O1      19.131780   22.388815   20.693778 O.co2      1 MOL1        -0.6735
       3    O2      19.679233   22.750224   22.732664 O.co2      1 MOL1        -0.6735
       4    C2      20.817400   21.017312   21.611752 C.3        1 MOL1        -0.1985
       5    H1      21.744735   21.394534   22.058678 H          1 MOL1         0.0740
       6    H2      21.034708   20.810352   20.556859 H          1 MOL1         0.0740
       7    C3      20.387692   19.714517   22.335467 C.3        1 MOL1        -0.1882
       8    H3      21.247681   19.033563   22.360510 H          1 MOL1         0.0742
       9    H4      20.127934   19.944622   23.377990 H          1 MOL1         0.0742
      10    C4      19.199116   19.011501   21.639666 C.3        1 MOL1        -0.1880
      11    H5      19.496751   18.708600   20.626569 H          1 MOL1         0.0742
      12    H6      18.377383   19.729983   21.515643 H          1 MOL1         0.0742
      13    C5      18.650968   17.781082   22.405254 C.3        1 MOL1        -0.1880
      14    H7      18.264402   18.089666   23.386207 H          1 MOL1         0.0742
      15    H8      17.782193   17.405872   21.847297 H          1 MOL1         0.0742
      16    C6      19.658671   16.615736   22.567752 C.3        1 MOL1        -0.1856
      17    H9      20.387497   16.624449   21.745592 H          1 MOL1         0.0742
      18    H10     19.113439   15.665640   22.482090 H          1 MOL1         0.0742
      19    C7      20.387182   16.626196   23.930174 C.3        1 MOL1        -0.2871
      20    H11     20.966725   17.544681   24.076525 H          1 MOL1         0.0754
      21    H12     21.079948   15.777783   24.001518 H          1 MOL1         0.0754
      22    H13     19.669525   16.543732   24.756766 H          1 MOL1         0.0754
@<TRIPOS>BOND
    1     1     2    1
    2     1     3    2
    3     1     4    1
    4     4     5    1
    5     4     6    1
    6     4     7    1
    7     7     8    1
    8     7     9    1
    9     7    10    1
   10    10    11    1
   11    10    12    1
   12    10    13    1
   13    13    14    1
   14    13    15    1
   15    13    16    1
   16    16    17    1
   17    16    18    1
   18    16    19    1
   19    19    20    1
   20    19    21    1
   21    19    22    1
@<TRIPOS>SUBSTRUCTURE
       1 MOL1            1 RESIDUE      1      MOL     
@<SCITEGIC>MOL_PROPERTY
VConf Rank
SciTegic.value.IntegerValue
118

@<SCITEGIC>MOL_PROPERTY
Conf_Id
SciTegic.value.IntegerValue
82

@<SCITEGIC>MOL_PROPERTY
Delta U+W
SciTegic.value.DoubleValue
3.438

@<SCITEGIC>MOL_PROPERTY
U+W
SciTegic.value.DoubleValue
-49.721

@<SCITEGIC>MOL_PROPERTY
Grad RMS
SciTegic.value.DoubleValue
0.000000

@<SCITEGIC>MOL_PROPERTY
U
SciTegic.value.DoubleValue
11.773

@<SCITEGIC>MOL_PROPERTY
W
SciTegic.value.DoubleValue
-61.495

@<SCITEGIC>MOL_PROPERTY
W(PB)
SciTegic.value.DoubleValue
-63.749

@<SCITEGIC>MOL_PROPERTY
W(SA)
SciTegic.value.DoubleValue
2.254

@<SCITEGIC>MOL_PROPERTY
Valence
SciTegic.value.DoubleValue
10.419

@<SCITEGIC>MOL_PROPERTY
Coulomb
SciTegic.value.DoubleValue
0.565

@<SCITEGIC>MOL_PROPERTY
VdW
SciTegic.value.DoubleValue
0.789

@<SCITEGIC>MOL_PROPERTY
VdW6
SciTegic.value.DoubleValue
-8.847

@<SCITEGIC>MOL_PROPERTY
VdW12
SciTegic.value.DoubleValue
9.636

@<SCITEGIC>MOL_PROPERTY
Bond
SciTegic.value.DoubleValue
0.200

@<SCITEGIC>MOL_PROPERTY
Angle
SciTegic.value.DoubleValue
3.187

@<SCITEGIC>MOL_PROPERTY
Pdih
SciTegic.value.DoubleValue
7.032

@<SCITEGIC>MOL_PROPERTY
Idih
SciTegic.value.DoubleValue
0.001

@<SCITEGIC>MOL_PROPERTY
Tether
SciTegic.value.DoubleValue
0.000

@<TRIPOS>MOLECULE
guest-s21_confgen4.mol2 : confsearch ligand conformer 119
          22          21           1
SMALL
USER_CHARGES
 
@<TRIPOS>ATOM
       1    C1      18.543486   18.962413   19.345444 C.2        1 MOL1         0.6145
       2    O1      19.396117   19.293074   18.545035 O.co2      1 MOL1        -0.6735
       3    O2      17.776063   18.037286   19.166161 O.co2      1 MOL1        -0.6735
       4    C2      18.416041   19.768732   20.635020 C.3        1 MOL1        -0.1985
       5    H1      17.425968   19.582962   21.068726 H          1 MOL1         0.0740
       6    H2      18.448532   20.829869   20.361296 H          1 MOL1         0.0740
       7    C3      19.522804   19.470536   21.679934 C.3        1 MOL1        -0.1882
       8    H3      20.509331   19.615135   21.218269 H          1 MOL1         0.0742
       9    H4      19.436947   20.202789   22.492546 H          1 MOL1         0.0742
      10    C4      19.419625   18.042988   22.265207 C.3        1 MOL1        -0.1880
      11    H5      19.393609   17.316423   21.441638 H          1 MOL1         0.0742
      12    H6      18.465444   17.935562   22.798780 H          1 MOL1         0.0742
      13    C5      20.584945   17.657159   23.210559 C.3        1 MOL1        -0.1880
      14    H7      20.431471   16.612417   23.513588 H          1 MOL1         0.0742
      15    H8      21.536029   17.671265   22.660863 H          1 MOL1         0.0742
      16    C6      20.693284   18.519441   24.492991 C.3        1 MOL1        -0.1856
      17    H9      21.008432   17.873947   25.324445 H          1 MOL1         0.0742
      18    H10     19.706656   18.915082   24.770918 H          1 MOL1         0.0742
      19    C7      21.716693   19.670151   24.368391 C.3        1 MOL1        -0.2871
      20    H11     22.721251   19.278052   24.162945 H          1 MOL1         0.0754
      21    H12     21.765122   20.243628   25.303056 H          1 MOL1         0.0754
      22    H13     21.454115   20.364972   23.562674 H          1 MOL1         0.0754
@<TRIPOS>BOND
    1     1     2    1
    2     1     3    2
    3     1     4    1
    4     4     5    1
    5     4     6    1
    6     4     7    1
    7     7     8    1
    8     7     9    1
    9     7    10    1
   10    10    11    1
   11    10    12    1
   12    10    13    1
   13    13    14    1
   14    13    15    1
   15    13    16    1
   16    16    17    1
   17    16    18    1
   18    16    19    1
   19    19    20    1
   20    19    21    1
   21    19    22    1
@<TRIPOS>SUBSTRUCTURE
       1 MOL1            1 RESIDUE      1      MOL     
@<SCITEGIC>MOL_PROPERTY
VConf Rank
SciTegic.value.IntegerValue
119

@<SCITEGIC>MOL_PROPERTY
Conf_Id
SciTegic.value.IntegerValue
94

@<SCITEGIC>MOL_PROPERTY
Delta U+W
SciTegic.value.DoubleValue
3.471

@<SCITEGIC>MOL_PROPERTY
U+W
SciTegic.value.DoubleValue
-49.688

@<SCITEGIC>MOL_PROPERTY
Grad RMS
SciTegic.value.DoubleValue
0.000000

@<SCITEGIC>MOL_PROPERTY
U
SciTegic.value.DoubleValue
11.773

@<SCITEGIC>MOL_PROPERTY
W
SciTegic.value.DoubleValue
-61.461

@<SCITEGIC>MOL_PROPERTY
W(PB)
SciTegic.value.DoubleValue
-63.710

@<SCITEGIC>MOL_PROPERTY
W(SA)
SciTegic.value.DoubleValue
2.248

@<SCITEGIC>MOL_PROPERTY
Valence
SciTegic.value.DoubleValue
10.419

@<SCITEGIC>MOL_PROPERTY
Coulomb
SciTegic.value.DoubleValue
0.566

@<SCITEGIC>MOL_PROPERTY
VdW
SciTegic.value.DoubleValue
0.789

@<SCITEGIC>MOL_PROPERTY
VdW6
SciTegic.value.DoubleValue
-8.847

@<SCITEGIC>MOL_PROPERTY
VdW12
SciTegic.value.DoubleValue
9.636

@<SCITEGIC>MOL_PROPERTY
Bond
SciTegic.value.DoubleValue
0.200

@<SCITEGIC>MOL_PROPERTY
Angle
SciTegic.value.DoubleValue
3.187

@<SCITEGIC>MOL_PROPERTY
Pdih
SciTegic.value.DoubleValue
7.032

@<SCITEGIC>MOL_PROPERTY
Idih
SciTegic.value.DoubleValue
0.001

@<SCITEGIC>MOL_PROPERTY
Tether
SciTegic.value.DoubleValue
0.000

@<TRIPOS>MOLECULE
guest-s21_confgen4.mol2 : confsearch ligand conformer 120
          22          21           1
SMALL
USER_CHARGES
 
@<TRIPOS>ATOM
       1    C1      22.555456   20.190606   23.889725 C.2        1 MOL1         0.6145
       2    O1      23.699991   20.333350   23.507153 O.co2      1 MOL1        -0.6735
       3    O2      22.256179   19.959871   25.044614 O.co2      1 MOL1        -0.6735
       4    C2      21.435165   20.287307   22.860390 C.3        1 MOL1        -0.1985
       5    H1      21.739110   21.008142   22.092115 H          1 MOL1         0.0740
       6    H2      20.553794   20.700121   23.364179 H          1 MOL1         0.0740
       7    C3      21.099172   18.920895   22.208868 C.3        1 MOL1        -0.1882
       8    H3      22.019521   18.496064   21.785103 H          1 MOL1         0.0742
       9    H4      20.767882   18.216100   22.983036 H          1 MOL1         0.0742
      10    C4      20.036406   19.016329   21.085553 C.3        1 MOL1        -0.1880
      11    H5      19.896150   18.020945   20.643951 H          1 MOL1         0.0742
      12    H6      20.430836   19.646899   20.277251 H          1 MOL1         0.0742
      13    C5      18.659368   19.579787   21.525380 C.3        1 MOL1        -0.1880
      14    H7      18.772920   20.632786   21.814432 H          1 MOL1         0.0742
      15    H8      17.988423   19.582060   20.655683 H          1 MOL1         0.0742
      16    C6      17.972743   18.813150   22.682419 C.3        1 MOL1        -0.1856
      17    H9      17.025817   19.315827   22.922326 H          1 MOL1         0.0742
      18    H10     18.586353   18.871393   23.591316 H          1 MOL1         0.0742
      19    C7      17.679269   17.335313   22.345264 C.3        1 MOL1        -0.2871
      20    H11     17.079790   17.253009   21.429401 H          1 MOL1         0.0754
      21    H12     17.119645   16.858948   23.160520 H          1 MOL1         0.0754
      22    H13     18.607174   16.767464   22.202100 H          1 MOL1         0.0754
@<TRIPOS>BOND
    1     1     2    1
    2     1     3    2
    3     1     4    1
    4     4     5    1
    5     4     6    1
    6     4     7    1
    7     7     8    1
    8     7     9    1
    9     7    10    1
   10    10    11    1
   11    10    12    1
   12    10    13    1
   13    13    14    1
   14    13    15    1
   15    13    16    1
   16    16    17    1
   17    16    18    1
   18    16    19    1
   19    19    20    1
   20    19    21    1
   21    19    22    1
@<TRIPOS>SUBSTRUCTURE
       1 MOL1            1 RESIDUE      1      MOL     
@<SCITEGIC>MOL_PROPERTY
VConf Rank
SciTegic.value.IntegerValue
120

@<SCITEGIC>MOL_PROPERTY
Conf_Id
SciTegic.value.IntegerValue
56

@<SCITEGIC>MOL_PROPERTY
Delta U+W
SciTegic.value.DoubleValue
0.853

@<SCITEGIC>MOL_PROPERTY
U+W
SciTegic.value.DoubleValue
-52.307

@<SCITEGIC>MOL_PROPERTY
Grad RMS
SciTegic.value.DoubleValue
0.000000

@<SCITEGIC>MOL_PROPERTY
U
SciTegic.value.DoubleValue
8.874

@<SCITEGIC>MOL_PROPERTY
W
SciTegic.value.DoubleValue
-61.181

@<SCITEGIC>MOL_PROPERTY
W(PB)
SciTegic.value.DoubleValue
-63.413

@<SCITEGIC>MOL_PROPERTY
W(SA)
SciTegic.value.DoubleValue
2.232

@<SCITEGIC>MOL_PROPERTY
Valence
SciTegic.value.DoubleValue
8.479

@<SCITEGIC>MOL_PROPERTY
Coulomb
SciTegic.value.DoubleValue
-0.357

@<SCITEGIC>MOL_PROPERTY
VdW
SciTegic.value.DoubleValue
0.753

@<SCITEGIC>MOL_PROPERTY
VdW6
SciTegic.value.DoubleValue
-9.081

@<SCITEGIC>MOL_PROPERTY
VdW12
SciTegic.value.DoubleValue
9.833

@<SCITEGIC>MOL_PROPERTY
Bond
SciTegic.value.DoubleValue
0.221

@<SCITEGIC>MOL_PROPERTY
Angle
SciTegic.value.DoubleValue
3.208

@<SCITEGIC>MOL_PROPERTY
Pdih
SciTegic.value.DoubleValue
5.050

@<SCITEGIC>MOL_PROPERTY
Idih
SciTegic.value.DoubleValue
0.000

@<SCITEGIC>MOL_PROPERTY
Tether
SciTegic.value.DoubleValue
0.000

@<TRIPOS>MOLECULE
guest-s21_confgen4.mol2 : confsearch ligand conformer 121
          22          21           1
SMALL
USER_CHARGES
 
@<TRIPOS>ATOM
       1    C1      20.052942   16.137433   19.245753 C.2        1 MOL1         0.6145
       2    O1      21.261357   16.042849   19.341600 O.co2      1 MOL1        -0.6735
       3    O2      19.397022   15.486341   18.457229 O.co2      1 MOL1        -0.6735
       4    C2      19.294226   17.113562   20.146335 C.3        1 MOL1        -0.1985
       5    H1      18.548234   16.533363   20.702065 H          1 MOL1         0.0740
       6    H2      18.744393   17.801251   19.493084 H          1 MOL1         0.0740
       7    C3      20.174059   17.921849   21.136776 C.3        1 MOL1        -0.1882
       8    H3      20.726843   17.226862   21.784010 H          1 MOL1         0.0742
       9    H4      20.923059   18.496044   20.573938 H          1 MOL1         0.0742
      10    C4      19.329633   18.879981   22.004786 C.3        1 MOL1        -0.1880
      11    H5      18.581607   18.303701   22.566470 H          1 MOL1         0.0742
      12    H6      18.777851   19.573660   21.355574 H          1 MOL1         0.0742
      13    C5      20.206755   19.683059   22.989179 C.3        1 MOL1        -0.1880
      14    H7      20.758800   18.989780   23.638593 H          1 MOL1         0.0742
      15    H8      20.954941   20.259549   22.427927 H          1 MOL1         0.0742
      16    C6      19.363549   20.640693   23.856958 C.3        1 MOL1        -0.1856
      17    H9      18.615248   20.067289   24.421520 H          1 MOL1         0.0742
      18    H10     18.811326   21.337089   23.210770 H          1 MOL1         0.0742
      19    C7      20.243132   21.440804   24.838535 C.3        1 MOL1        -0.2871
      20    H11     20.783564   20.769328   25.518579 H          1 MOL1         0.0754
      21    H12     19.627811   22.116104   25.447175 H          1 MOL1         0.0754
      22    H13     20.981057   22.048687   24.298763 H          1 MOL1         0.0754
@<TRIPOS>BOND
    1     1     2    1
    2     1     3    2
    3     1     4    1
    4     4     5    1
    5     4     6    1
    6     4     7    1
    7     7     8    1
    8     7     9    1
    9     7    10    1
   10    10    11    1
   11    10    12    1
   12    10    13    1
   13    13    14    1
   14    13    15    1
   15    13    16    1
   16    16    17    1
   17    16    18    1
   18    16    19    1
   19    19    20    1
   20    19    21    1
   21    19    22    1
@<TRIPOS>SUBSTRUCTURE
       1 MOL1            1 RESIDUE      1      MOL     
@<SCITEGIC>MOL_PROPERTY
VConf Rank
SciTegic.value.IntegerValue
121

@<SCITEGIC>MOL_PROPERTY
Conf_Id
SciTegic.value.IntegerValue
0

@<SCITEGIC>MOL_PROPERTY
Delta U+W
SciTegic.value.DoubleValue
0.000

@<SCITEGIC>MOL_PROPERTY
U+W
SciTegic.value.DoubleValue
-53.159

@<SCITEGIC>MOL_PROPERTY
Grad RMS
SciTegic.value.DoubleValue
0.000000

@<SCITEGIC>MOL_PROPERTY
U
SciTegic.value.DoubleValue
6.763

@<SCITEGIC>MOL_PROPERTY
W
SciTegic.value.DoubleValue
-59.922

@<SCITEGIC>MOL_PROPERTY
W(PB)
SciTegic.value.DoubleValue
-62.256

@<SCITEGIC>MOL_PROPERTY
W(SA)
SciTegic.value.DoubleValue
2.334

@<SCITEGIC>MOL_PROPERTY
Valence
SciTegic.value.DoubleValue
7.600

@<SCITEGIC>MOL_PROPERTY
Coulomb
SciTegic.value.DoubleValue
-2.139

@<SCITEGIC>MOL_PROPERTY
VdW
SciTegic.value.DoubleValue
1.302

@<SCITEGIC>MOL_PROPERTY
VdW6
SciTegic.value.DoubleValue
-6.786

@<SCITEGIC>MOL_PROPERTY
VdW12
SciTegic.value.DoubleValue
8.088

@<SCITEGIC>MOL_PROPERTY
Bond
SciTegic.value.DoubleValue
0.134

@<SCITEGIC>MOL_PROPERTY
Angle
SciTegic.value.DoubleValue
2.720

@<SCITEGIC>MOL_PROPERTY
Pdih
SciTegic.value.DoubleValue
4.746

@<SCITEGIC>MOL_PROPERTY
Idih
SciTegic.value.DoubleValue
0.000

@<SCITEGIC>MOL_PROPERTY
Tether
SciTegic.value.DoubleValue
0.000

@<TRIPOS>MOLECULE
guest-s21_confgen4.mol2 : confsearch ligand conformer 122
          22          21           1
SMALL
USER_CHARGES
 
@<TRIPOS>ATOM
       1    C1      21.351114   15.370888   23.035358 C.2        1 MOL1         0.6145
       2    O1      22.507938   15.228499   22.691968 O.co2      1 MOL1        -0.6735
       3    O2      20.538187   14.467963   23.052808 O.co2      1 MOL1        -0.6735
       4    C2      20.888268   16.764313   23.445667 C.3        1 MOL1        -0.1985
       5    H1      21.734890   17.280330   23.914303 H          1 MOL1         0.0740
       6    H2      20.111662   16.653480   24.211997 H          1 MOL1         0.0740
       7    C3      20.349301   17.594321   22.254596 C.3        1 MOL1        -0.1882
       8    H3      21.134147   17.684944   21.490805 H          1 MOL1         0.0742
       9    H4      19.510968   17.058114   21.788491 H          1 MOL1         0.0742
      10    C4      19.887388   18.999977   22.695785 C.3        1 MOL1        -0.1880
      11    H5      20.727371   19.532797   23.162374 H          1 MOL1         0.0742
      12    H6      19.103798   18.905806   23.460174 H          1 MOL1         0.0742
      13    C5      19.350629   19.825000   21.506449 C.3        1 MOL1        -0.1880
      14    H7      20.133933   19.919391   20.741824 H          1 MOL1         0.0742
      15    H8      18.510628   19.292506   21.039571 H          1 MOL1         0.0742
      16    C6      18.888781   21.230007   21.946587 C.3        1 MOL1        -0.1856
      17    H9      19.727004   21.766589   22.412353 H          1 MOL1         0.0742
      18    H10     18.103704   21.139710   22.710116 H          1 MOL1         0.0742
      19    C7      18.353483   22.050696   20.756097 C.3        1 MOL1        -0.2871
      20    H11     17.493370   21.552012   20.290342 H          1 MOL1         0.0754
      21    H12     19.128891   22.183469   19.990251 H          1 MOL1         0.0754
      22    H13     18.029824   23.046168   21.086814 H          1 MOL1         0.0754
@<TRIPOS>BOND
    1     1     2    1
    2     1     3    2
    3     1     4    1
    4     4     5    1
    5     4     6    1
    6     4     7    1
    7     7     8    1
    8     7     9    1
    9     7    10    1
   10    10    11    1
   11    10    12    1
   12    10    13    1
   13    13    14    1
   14    13    15    1
   15    13    16    1
   16    16    17    1
   17    16    18    1
   18    16    19    1
   19    19    20    1
   20    19    21    1
   21    19    22    1
@<TRIPOS>SUBSTRUCTURE
       1 MOL1            1 RESIDUE      1      MOL     
@<SCITEGIC>MOL_PROPERTY
VConf Rank
SciTegic.value.IntegerValue
122

@<SCITEGIC>MOL_PROPERTY
Conf_Id
SciTegic.value.IntegerValue
10

@<SCITEGIC>MOL_PROPERTY
Delta U+W
SciTegic.value.DoubleValue
-1.291

@<SCITEGIC>MOL_PROPERTY
U+W
SciTegic.value.DoubleValue
-54.451

@<SCITEGIC>MOL_PROPERTY
Grad RMS
SciTegic.value.DoubleValue
0.000000

@<SCITEGIC>MOL_PROPERTY
U
SciTegic.value.DoubleValue
5.779

@<SCITEGIC>MOL_PROPERTY
W
SciTegic.value.DoubleValue
-60.230

@<SCITEGIC>MOL_PROPERTY
W(PB)
SciTegic.value.DoubleValue
-62.557

@<SCITEGIC>MOL_PROPERTY
W(SA)
SciTegic.value.DoubleValue
2.328

@<SCITEGIC>MOL_PROPERTY
Valence
SciTegic.value.DoubleValue
7.101

@<SCITEGIC>MOL_PROPERTY
Coulomb
SciTegic.value.DoubleValue
-2.079

@<SCITEGIC>MOL_PROPERTY
VdW
SciTegic.value.DoubleValue
0.757

@<SCITEGIC>MOL_PROPERTY
VdW6
SciTegic.value.DoubleValue
-6.496

@<SCITEGIC>MOL_PROPERTY
VdW12
SciTegic.value.DoubleValue
7.253

@<SCITEGIC>MOL_PROPERTY
Bond
SciTegic.value.DoubleValue
0.100

@<SCITEGIC>MOL_PROPERTY
Angle
SciTegic.value.DoubleValue
2.262

@<SCITEGIC>MOL_PROPERTY
Pdih
SciTegic.value.DoubleValue
4.738

@<SCITEGIC>MOL_PROPERTY
Idih
SciTegic.value.DoubleValue
0.001

@<SCITEGIC>MOL_PROPERTY
Tether
SciTegic.value.DoubleValue
0.000

@<TRIPOS>MOLECULE
guest-s21_confgen4.mol2 : confsearch ligand conformer 123
          22          21           1
SMALL
USER_CHARGES
 
@<TRIPOS>ATOM
       1    C1      17.381649   21.792478   21.353545 C.2        1 MOL1         0.6145
       2    O1      17.837992   22.592697   20.561173 O.co2      1 MOL1        -0.6735
       3    O2      16.193448   21.570037   21.476649 O.co2      1 MOL1        -0.6735
       4    C2      18.355056   21.008913   22.226880 C.3        1 MOL1        -0.1985
       5    H1      17.865440   20.808190   23.187417 H          1 MOL1         0.0740
       6    H2      19.220787   21.650075   22.432009 H          1 MOL1         0.0740
       7    C3      18.815288   19.682168   21.574128 C.3        1 MOL1        -0.1882
       8    H3      17.935980   19.057843   21.363064 H          1 MOL1         0.0742
       9    H4      19.292000   19.899123   20.608091 H          1 MOL1         0.0742
      10    C4      19.799649   18.908120   22.477582 C.3        1 MOL1        -0.1880
      11    H5      19.319758   18.690828   23.441607 H          1 MOL1         0.0742
      12    H6      20.670205   19.543009   22.687853 H          1 MOL1         0.0742
      13    C5      20.258890   17.586421   21.819958 C.3        1 MOL1        -0.1880
      14    H7      19.373366   16.994116   21.551715 H          1 MOL1         0.0742
      15    H8      20.784352   17.803588   20.879924 H          1 MOL1         0.0742
      16    C6      21.165376   16.728130   22.732605 C.3        1 MOL1        -0.1856
      17    H9      21.347784   15.762756   22.240654 H          1 MOL1         0.0742
      18    H10     20.640614   16.503548   23.671486 H          1 MOL1         0.0742
      19    C7      22.524385   17.392132   23.043098 C.3        1 MOL1        -0.2871
      20    H11     23.163152   16.708586   23.617260 H          1 MOL1         0.0754
      21    H12     22.397640   18.305635   23.637362 H          1 MOL1         0.0754
      22    H13     23.054609   17.653253   22.117995 H          1 MOL1         0.0754
@<TRIPOS>BOND
    1     1     2    1
    2     1     3    2
    3     1     4    1
    4     4     5    1
    5     4     6    1
    6     4     7    1
    7     7     8    1
    8     7     9    1
    9     7    10    1
   10    10    11    1
   11    10    12    1
   12    10    13    1
   13    13    14    1
   14    13    15    1
   15    13    16    1
   16    16    17    1
   17    16    18    1
   18    16    19    1
   19    19    20    1
   20    19    21    1
   21    19    22    1
@<TRIPOS>SUBSTRUCTURE
       1 MOL1            1 RESIDUE      1      MOL     
@<SCITEGIC>MOL_PROPERTY
VConf Rank
SciTegic.value.IntegerValue
123

@<SCITEGIC>MOL_PROPERTY
Conf_Id
SciTegic.value.IntegerValue
37

@<SCITEGIC>MOL_PROPERTY
Delta U+W
SciTegic.value.DoubleValue
-0.345

@<SCITEGIC>MOL_PROPERTY
U+W
SciTegic.value.DoubleValue
-53.504

@<SCITEGIC>MOL_PROPERTY
Grad RMS
SciTegic.value.DoubleValue
0.000000

@<SCITEGIC>MOL_PROPERTY
U
SciTegic.value.DoubleValue
6.751

@<SCITEGIC>MOL_PROPERTY
W
SciTegic.value.DoubleValue
-60.255

@<SCITEGIC>MOL_PROPERTY
W(PB)
SciTegic.value.DoubleValue
-62.592

@<SCITEGIC>MOL_PROPERTY
W(SA)
SciTegic.value.DoubleValue
2.336

@<SCITEGIC>MOL_PROPERTY
Valence
SciTegic.value.DoubleValue
7.602

@<SCITEGIC>MOL_PROPERTY
Coulomb
SciTegic.value.DoubleValue
-1.744

@<SCITEGIC>MOL_PROPERTY
VdW
SciTegic.value.DoubleValue
0.894

@<SCITEGIC>MOL_PROPERTY
VdW6
SciTegic.value.DoubleValue
-7.110

@<SCITEGIC>MOL_PROPERTY
VdW12
SciTegic.value.DoubleValue
8.004

@<SCITEGIC>MOL_PROPERTY
Bond
SciTegic.value.DoubleValue
0.131

@<SCITEGIC>MOL_PROPERTY
Angle
SciTegic.value.DoubleValue
2.489

@<SCITEGIC>MOL_PROPERTY
Pdih
SciTegic.value.DoubleValue
4.982

@<SCITEGIC>MOL_PROPERTY
Idih
SciTegic.value.DoubleValue
0.001

@<SCITEGIC>MOL_PROPERTY
Tether
SciTegic.value.DoubleValue
0.000

@<TRIPOS>MOLECULE
guest-s21_confgen4.mol2 : confsearch ligand conformer 124
          22          21           1
SMALL
USER_CHARGES
 
@<TRIPOS>ATOM
       1    C1      15.996956   18.328287   21.716470 C.2        1 MOL1         0.6145
       2    O1      15.298589   19.154044   22.270419 O.co2      1 MOL1        -0.6735
       3    O2      15.641373   17.188462   21.491042 O.co2      1 MOL1        -0.6735
       4    C2      17.405107   18.738708   21.300685 C.3        1 MOL1        -0.1985
       5    H1      17.385598   19.802641   21.035502 H          1 MOL1         0.0740
       6    H2      17.667879   18.182994   20.392512 H          1 MOL1         0.0740
       7    C3      18.457954   18.482895   22.407134 C.3        1 MOL1        -0.1882
       8    H3      18.174075   19.036072   23.313200 H          1 MOL1         0.0742
       9    H4      18.455186   17.416061   22.670514 H          1 MOL1         0.0742
      10    C4      19.874520   18.906344   21.961731 C.3        1 MOL1        -0.1880
      11    H5      19.864292   19.971009   21.694243 H          1 MOL1         0.0742
      12    H6      20.156455   18.350226   21.057242 H          1 MOL1         0.0742
      13    C5      20.921086   18.652578   23.071039 C.3        1 MOL1        -0.1880
      14    H7      20.669901   19.247104   23.960074 H          1 MOL1         0.0742
      15    H8      20.869445   17.598643   23.376801 H          1 MOL1         0.0742
      16    C6      22.370437   18.965808   22.632199 C.3        1 MOL1        -0.1856
      17    H9      22.627541   18.368060   21.746815 H          1 MOL1         0.0742
      18    H10     23.056393   18.649272   23.430010 H          1 MOL1         0.0742
      19    C7      22.609657   20.462228   22.336034 C.3        1 MOL1        -0.2871
      20    H11     22.330785   21.082780   23.197592 H          1 MOL1         0.0754
      21    H12     22.028499   20.796814   21.467696 H          1 MOL1         0.0754
      22    H13     23.669500   20.645317   22.116648 H          1 MOL1         0.0754
@<TRIPOS>BOND
    1     1     2    1
    2     1     3    2
    3     1     4    1
    4     4     5    1
    5     4     6    1
    6     4     7    1
    7     7     8    1
    8     7     9    1
    9     7    10    1
   10    10    11    1
   11    10    12    1
   12    10    13    1
   13    13    14    1
   14    13    15    1
   15    13    16    1
   16    16    17    1
   17    16    18    1
   18    16    19    1
   19    19    20    1
   20    19    21    1
   21    19    22    1
@<TRIPOS>SUBSTRUCTURE
       1 MOL1            1 RESIDUE      1      MOL     
@<SCITEGIC>MOL_PROPERTY
VConf Rank
SciTegic.value.IntegerValue
124

@<SCITEGIC>MOL_PROPERTY
Conf_Id
SciTegic.value.IntegerValue
38

@<SCITEGIC>MOL_PROPERTY
Delta U+W
SciTegic.value.DoubleValue
-0.439

@<SCITEGIC>MOL_PROPERTY
U+W
SciTegic.value.DoubleValue
-53.598

@<SCITEGIC>MOL_PROPERTY
Grad RMS
SciTegic.value.DoubleValue
0.000000

@<SCITEGIC>MOL_PROPERTY
U
SciTegic.value.DoubleValue
6.751

@<SCITEGIC>MOL_PROPERTY
W
SciTegic.value.DoubleValue
-60.350

@<SCITEGIC>MOL_PROPERTY
W(PB)
SciTegic.value.DoubleValue
-62.659

@<SCITEGIC>MOL_PROPERTY
W(SA)
SciTegic.value.DoubleValue
2.309

@<SCITEGIC>MOL_PROPERTY
Valence
SciTegic.value.DoubleValue
7.602

@<SCITEGIC>MOL_PROPERTY
Coulomb
SciTegic.value.DoubleValue
-1.744

@<SCITEGIC>MOL_PROPERTY
VdW
SciTegic.value.DoubleValue
0.893

@<SCITEGIC>MOL_PROPERTY
VdW6
SciTegic.value.DoubleValue
-7.110

@<SCITEGIC>MOL_PROPERTY
VdW12
SciTegic.value.DoubleValue
8.004

@<SCITEGIC>MOL_PROPERTY
Bond
SciTegic.value.DoubleValue
0.131

@<SCITEGIC>MOL_PROPERTY
Angle
SciTegic.value.DoubleValue
2.489

@<SCITEGIC>MOL_PROPERTY
Pdih
SciTegic.value.DoubleValue
4.981

@<SCITEGIC>MOL_PROPERTY
Idih
SciTegic.value.DoubleValue
0.001

@<SCITEGIC>MOL_PROPERTY
Tether
SciTegic.value.DoubleValue
0.000

@<TRIPOS>MOLECULE
guest-s21_confgen4.mol2 : confsearch ligand conformer 125
          22          21           1
SMALL
USER_CHARGES
 
@<TRIPOS>ATOM
       1    C1      18.116051   20.402589   25.261899 C.2        1 MOL1         0.6145
       2    O1      16.921340   20.295598   25.456271 O.co2      1 MOL1        -0.6735
       3    O2      18.811917   21.243195   25.796394 O.co2      1 MOL1        -0.6735
       4    C2      18.773787   19.443721   24.275875 C.3        1 MOL1        -0.1985
       5    H1      18.238342   18.487929   24.322542 H          1 MOL1         0.0740
       6    H2      19.797079   19.261016   24.622217 H          1 MOL1         0.0740
       7    C3      18.775146   19.985834   22.822698 C.3        1 MOL1        -0.1882
       8    H3      17.744960   20.249068   22.545441 H          1 MOL1         0.0742
       9    H4      19.355464   20.917806   22.778501 H          1 MOL1         0.0742
      10    C4      19.323892   18.978065   21.784430 C.3        1 MOL1        -0.1880
      11    H5      19.151894   19.394382   20.783718 H          1 MOL1         0.0742
      12    H6      18.747069   18.044700   21.837084 H          1 MOL1         0.0742
      13    C5      20.831452   18.671637   21.961600 C.3        1 MOL1        -0.1880
      14    H7      21.407968   19.605308   21.910711 H          1 MOL1         0.0742
      15    H8      21.004470   18.252416   22.960798 H          1 MOL1         0.0742
      16    C6      21.380433   17.667748   20.920954 C.3        1 MOL1        -0.1856
      17    H9      20.798838   16.736375   20.960743 H          1 MOL1         0.0742
      18    H10     22.409930   17.402225   21.198222 H          1 MOL1         0.0742
      19    C7      21.383343   18.218368   19.478227 C.3        1 MOL1        -0.2871
      20    H11     20.363640   18.385087   19.109667 H          1 MOL1         0.0754
      21    H12     21.869411   17.507421   18.797632 H          1 MOL1         0.0754
      22    H13     21.930534   19.168347   19.421251 H          1 MOL1         0.0754
@<TRIPOS>BOND
    1     1     2    1
    2     1     3    2
    3     1     4    1
    4     4     5    1
    5     4     6    1
    6     4     7    1
    7     7     8    1
    8     7     9    1
    9     7    10    1
   10    10    11    1
   11    10    12    1
   12    10    13    1
   13    13    14    1
   14    13    15    1
   15    13    16    1
   16    16    17    1
   17    16    18    1
   18    16    19    1
   19    19    20    1
   20    19    21    1
   21    19    22    1
@<TRIPOS>SUBSTRUCTURE
       1 MOL1            1 RESIDUE      1      MOL     
@<SCITEGIC>MOL_PROPERTY
VConf Rank
SciTegic.value.IntegerValue
125

@<SCITEGIC>MOL_PROPERTY
Conf_Id
SciTegic.value.IntegerValue
60

@<SCITEGIC>MOL_PROPERTY
Delta U+W
SciTegic.value.DoubleValue
0.386

@<SCITEGIC>MOL_PROPERTY
U+W
SciTegic.value.DoubleValue
-52.773

@<SCITEGIC>MOL_PROPERTY
Grad RMS
SciTegic.value.DoubleValue
0.000000

@<SCITEGIC>MOL_PROPERTY
U
SciTegic.value.DoubleValue
7.689

@<SCITEGIC>MOL_PROPERTY
W
SciTegic.value.DoubleValue
-60.463

@<SCITEGIC>MOL_PROPERTY
W(PB)
SciTegic.value.DoubleValue
-62.772

@<SCITEGIC>MOL_PROPERTY
W(SA)
SciTegic.value.DoubleValue
2.309

@<SCITEGIC>MOL_PROPERTY
Valence
SciTegic.value.DoubleValue
8.197

@<SCITEGIC>MOL_PROPERTY
Coulomb
SciTegic.value.DoubleValue
-1.561

@<SCITEGIC>MOL_PROPERTY
VdW
SciTegic.value.DoubleValue
1.053

@<SCITEGIC>MOL_PROPERTY
VdW6
SciTegic.value.DoubleValue
-7.737

@<SCITEGIC>MOL_PROPERTY
VdW12
SciTegic.value.DoubleValue
8.790

@<SCITEGIC>MOL_PROPERTY
Bond
SciTegic.value.DoubleValue
0.181

@<SCITEGIC>MOL_PROPERTY
Angle
SciTegic.value.DoubleValue
2.780

@<SCITEGIC>MOL_PROPERTY
Pdih
SciTegic.value.DoubleValue
5.235

@<SCITEGIC>MOL_PROPERTY
Idih
SciTegic.value.DoubleValue
0.001

@<SCITEGIC>MOL_PROPERTY
Tether
SciTegic.value.DoubleValue
0.000

@<TRIPOS>MOLECULE
guest-s21_confgen4.mol2 : confsearch ligand conformer 126
          22          21           1
SMALL
USER_CHARGES
 
@<TRIPOS>ATOM
       1    C1      16.864823   19.373446   19.970350 C.2        1 MOL1         0.6145
       2    O1      16.338681   20.448675   20.179134 O.co2      1 MOL1        -0.6735
       3    O2      16.312438   18.453721   19.399791 O.co2      1 MOL1        -0.6735
       4    C2      18.288446   19.158593   20.471771 C.3        1 MOL1        -0.1985
       5    H1      18.812015   20.118901   20.407369 H          1 MOL1         0.0740
       6    H2      18.790214   18.467044   19.784455 H          1 MOL1         0.0740
       7    C3      18.336846   18.603487   21.919226 C.3        1 MOL1        -0.1882
       8    H3      17.875206   19.326454   22.605887 H          1 MOL1         0.0742
       9    H4      17.721461   17.694392   21.967141 H          1 MOL1         0.0742
      10    C4      19.765236   18.259144   22.404871 C.3        1 MOL1        -0.1880
      11    H5      20.226770   17.542633   21.711859 H          1 MOL1         0.0742
      12    H6      19.680621   17.746899   23.371708 H          1 MOL1         0.0742
      13    C5      20.678657   19.500109   22.558767 C.3        1 MOL1        -0.1880
      14    H7      20.766706   20.011544   21.591937 H          1 MOL1         0.0742
      15    H8      20.216098   20.217375   23.250338 H          1 MOL1         0.0742
      16    C6      22.104768   19.155910   23.048510 C.3        1 MOL1        -0.1856
      17    H9      22.721764   20.063715   22.998995 H          1 MOL1         0.0742
      18    H10     22.566743   18.429683   22.365527 H          1 MOL1         0.0742
      19    C7      22.143402   18.610013   24.492518 C.3        1 MOL1        -0.2871
      20    H11     21.655597   19.304833   25.188503 H          1 MOL1         0.0754
      21    H12     23.181217   18.473959   24.823196 H          1 MOL1         0.0754
      22    H13     21.641746   17.637350   24.567983 H          1 MOL1         0.0754
@<TRIPOS>BOND
    1     1     2    1
    2     1     3    2
    3     1     4    1
    4     4     5    1
    5     4     6    1
    6     4     7    1
    7     7     8    1
    8     7     9    1
    9     7    10    1
   10    10    11    1
   11    10    12    1
   12    10    13    1
   13    13    14    1
   14    13    15    1
   15    13    16    1
   16    16    17    1
   17    16    18    1
   18    16    19    1
   19    19    20    1
   20    19    21    1
   21    19    22    1
@<TRIPOS>SUBSTRUCTURE
       1 MOL1            1 RESIDUE      1      MOL     
@<SCITEGIC>MOL_PROPERTY
VConf Rank
SciTegic.value.IntegerValue
126

@<SCITEGIC>MOL_PROPERTY
Conf_Id
SciTegic.value.IntegerValue
28

@<SCITEGIC>MOL_PROPERTY
Delta U+W
SciTegic.value.DoubleValue
0.351

@<SCITEGIC>MOL_PROPERTY
U+W
SciTegic.value.DoubleValue
-52.808

@<SCITEGIC>MOL_PROPERTY
Grad RMS
SciTegic.value.DoubleValue
0.000000

@<SCITEGIC>MOL_PROPERTY
U
SciTegic.value.DoubleValue
7.689

@<SCITEGIC>MOL_PROPERTY
W
SciTegic.value.DoubleValue
-60.498

@<SCITEGIC>MOL_PROPERTY
W(PB)
SciTegic.value.DoubleValue
-62.768

@<SCITEGIC>MOL_PROPERTY
W(SA)
SciTegic.value.DoubleValue
2.270

@<SCITEGIC>MOL_PROPERTY
Valence
SciTegic.value.DoubleValue
8.197

@<SCITEGIC>MOL_PROPERTY
Coulomb
SciTegic.value.DoubleValue
-1.561

@<SCITEGIC>MOL_PROPERTY
VdW
SciTegic.value.DoubleValue
1.053

@<SCITEGIC>MOL_PROPERTY
VdW6
SciTegic.value.DoubleValue
-7.737

@<SCITEGIC>MOL_PROPERTY
VdW12
SciTegic.value.DoubleValue
8.791

@<SCITEGIC>MOL_PROPERTY
Bond
SciTegic.value.DoubleValue
0.181

@<SCITEGIC>MOL_PROPERTY
Angle
SciTegic.value.DoubleValue
2.780

@<SCITEGIC>MOL_PROPERTY
Pdih
SciTegic.value.DoubleValue
5.235

@<SCITEGIC>MOL_PROPERTY
Idih
SciTegic.value.DoubleValue
0.001

@<SCITEGIC>MOL_PROPERTY
Tether
SciTegic.value.DoubleValue
0.000

@<TRIPOS>MOLECULE
guest-s21_confgen4.mol2 : confsearch ligand conformer 127
          22          21           1
SMALL
USER_CHARGES
 
@<TRIPOS>ATOM
       1    C1      17.607970   17.098824   24.596614 C.2        1 MOL1         0.6145
       2    O1      17.348349   15.941865   24.331070 O.co2      1 MOL1        -0.6735
       3    O2      17.843698   17.494717   25.720961 O.co2      1 MOL1        -0.6735
       4    C2      17.660388   18.105658   23.452998 C.3        1 MOL1        -0.1985
       5    H1      17.338209   19.079397   23.841178 H          1 MOL1         0.0740
       6    H2      16.928078   17.799725   22.696199 H          1 MOL1         0.0740
       7    C3      19.068366   18.222998   22.818874 C.3        1 MOL1        -0.1882
       8    H3      19.785673   18.510090   23.598949 H          1 MOL1         0.0742
       9    H4      19.380083   17.238607   22.443223 H          1 MOL1         0.0742
      10    C4      19.093833   19.253318   21.666115 C.3        1 MOL1        -0.1880
      11    H5      18.833287   20.248308   22.052249 H          1 MOL1         0.0742
      12    H6      18.316945   18.990326   20.935197 H          1 MOL1         0.0742
      13    C5      20.453686   19.322827   20.931589 C.3        1 MOL1        -0.1880
      14    H7      20.712678   18.328893   20.541781 H          1 MOL1         0.0742
      15    H8      20.344097   19.979959   20.058035 H          1 MOL1         0.0742
      16    C6      21.605557   19.852113   21.815525 C.3        1 MOL1        -0.1856
      17    H9      21.784640   19.166784   22.654340 H          1 MOL1         0.0742
      18    H10     21.325129   20.822429   22.248022 H          1 MOL1         0.0742
      19    C7      22.910579   20.008944   21.009278 C.3        1 MOL1        -0.2871
      20    H11     22.779195   20.719221   20.182477 H          1 MOL1         0.0754
      21    H12     23.229283   19.046686   20.587527 H          1 MOL1         0.0754
      22    H13     23.719175   20.382202   21.651089 H          1 MOL1         0.0754
@<TRIPOS>BOND
    1     1     2    1
    2     1     3    2
    3     1     4    1
    4     4     5    1
    5     4     6    1
    6     4     7    1
    7     7     8    1
    8     7     9    1
    9     7    10    1
   10    10    11    1
   11    10    12    1
   12    10    13    1
   13    13    14    1
   14    13    15    1
   15    13    16    1
   16    16    17    1
   17    16    18    1
   18    16    19    1
   19    19    20    1
   20    19    21    1
   21    19    22    1
@<TRIPOS>SUBSTRUCTURE
       1 MOL1            1 RESIDUE      1      MOL     
@<SCITEGIC>MOL_PROPERTY
VConf Rank
SciTegic.value.IntegerValue
127

@<SCITEGIC>MOL_PROPERTY
Conf_Id
SciTegic.value.IntegerValue
50

@<SCITEGIC>MOL_PROPERTY
Delta U+W
SciTegic.value.DoubleValue
-0.486

@<SCITEGIC>MOL_PROPERTY
U+W
SciTegic.value.DoubleValue
-53.646

@<SCITEGIC>MOL_PROPERTY
Grad RMS
SciTegic.value.DoubleValue
0.000000

@<SCITEGIC>MOL_PROPERTY
U
SciTegic.value.DoubleValue
7.026

@<SCITEGIC>MOL_PROPERTY
W
SciTegic.value.DoubleValue
-60.672

@<SCITEGIC>MOL_PROPERTY
W(PB)
SciTegic.value.DoubleValue
-62.964

@<SCITEGIC>MOL_PROPERTY
W(SA)
SciTegic.value.DoubleValue
2.292

@<SCITEGIC>MOL_PROPERTY
Valence
SciTegic.value.DoubleValue
7.637

@<SCITEGIC>MOL_PROPERTY
Coulomb
SciTegic.value.DoubleValue
-1.488

@<SCITEGIC>MOL_PROPERTY
VdW
SciTegic.value.DoubleValue
0.877

@<SCITEGIC>MOL_PROPERTY
VdW6
SciTegic.value.DoubleValue
-7.165

@<SCITEGIC>MOL_PROPERTY
VdW12
SciTegic.value.DoubleValue
8.043

@<SCITEGIC>MOL_PROPERTY
Bond
SciTegic.value.DoubleValue
0.134

@<SCITEGIC>MOL_PROPERTY
Angle
SciTegic.value.DoubleValue
2.513

@<SCITEGIC>MOL_PROPERTY
Pdih
SciTegic.value.DoubleValue
4.990

@<SCITEGIC>MOL_PROPERTY
Idih
SciTegic.value.DoubleValue
0.001

@<SCITEGIC>MOL_PROPERTY
Tether
SciTegic.value.DoubleValue
0.000

@<TRIPOS>MOLECULE
guest-s21_confgen4.mol2 : confsearch ligand conformer 128
          22          21           1
SMALL
USER_CHARGES
 
@<TRIPOS>ATOM
       1    C1      17.266810   21.568529   23.414440 C.2        1 MOL1         0.6145
       2    O1      17.585741   22.251512   24.367482 O.co2      1 MOL1        -0.6735
       3    O2      16.157402   21.095424   23.266655 O.co2      1 MOL1        -0.6735
       4    C2      18.322957   21.271837   22.355735 C.3        1 MOL1        -0.1985
       5    H1      18.994398   22.136614   22.292939 H          1 MOL1         0.0740
       6    H2      17.818011   21.182148   21.386387 H          1 MOL1         0.0740
       7    C3      19.132369   19.986400   22.657068 C.3        1 MOL1        -0.1882
       8    H3      19.624243   20.088316   23.634297 H          1 MOL1         0.0742
       9    H4      18.437419   19.139962   22.734887 H          1 MOL1         0.0742
      10    C4      20.192132   19.707368   21.566146 C.3        1 MOL1        -0.1880
      11    H5      20.828532   20.595506   21.451389 H          1 MOL1         0.0742
      12    H6      19.696090   19.553226   20.598070 H          1 MOL1         0.0742
      13    C5      21.097836   18.493708   21.882833 C.3        1 MOL1        -0.1880
      14    H7      21.893186   18.446354   21.126459 H          1 MOL1         0.0742
      15    H8      21.597140   18.649232   22.848980 H          1 MOL1         0.0742
      16    C6      20.340477   17.146695   21.898694 C.3        1 MOL1        -0.1856
      17    H9      19.797933   17.015321   20.952336 H          1 MOL1         0.0742
      18    H10     19.591198   17.143129   22.701145 H          1 MOL1         0.0742
      19    C7      21.302581   15.959688   22.106270 C.3        1 MOL1        -0.2871
      20    H11     21.839099   16.051567   23.059733 H          1 MOL1         0.0754
      21    H12     22.044546   15.908858   21.298643 H          1 MOL1         0.0754
      22    H13     20.749768   15.011363   22.118406 H          1 MOL1         0.0754
@<TRIPOS>BOND
    1     1     2    1
    2     1     3    2
    3     1     4    1
    4     4     5    1
    5     4     6    1
    6     4     7    1
    7     7     8    1
    8     7     9    1
    9     7    10    1
   10    10    11    1
   11    10    12    1
   12    10    13    1
   13    13    14    1
   14    13    15    1
   15    13    16    1
   16    16    17    1
   17    16    18    1
   18    16    19    1
   19    19    20    1
   20    19    21    1
   21    19    22    1
@<TRIPOS>SUBSTRUCTURE
       1 MOL1            1 RESIDUE      1      MOL     
@<SCITEGIC>MOL_PROPERTY
VConf Rank
SciTegic.value.IntegerValue
128

@<SCITEGIC>MOL_PROPERTY
Conf_Id
SciTegic.value.IntegerValue
51

@<SCITEGIC>MOL_PROPERTY
Delta U+W
SciTegic.value.DoubleValue
-0.517

@<SCITEGIC>MOL_PROPERTY
U+W
SciTegic.value.DoubleValue
-53.677

@<SCITEGIC>MOL_PROPERTY
Grad RMS
SciTegic.value.DoubleValue
0.000000

@<SCITEGIC>MOL_PROPERTY
U
SciTegic.value.DoubleValue
7.026

@<SCITEGIC>MOL_PROPERTY
W
SciTegic.value.DoubleValue
-60.703

@<SCITEGIC>MOL_PROPERTY
W(PB)
SciTegic.value.DoubleValue
-63.007

@<SCITEGIC>MOL_PROPERTY
W(SA)
SciTegic.value.DoubleValue
2.304

@<SCITEGIC>MOL_PROPERTY
Valence
SciTegic.value.DoubleValue
7.638

@<SCITEGIC>MOL_PROPERTY
Coulomb
SciTegic.value.DoubleValue
-1.488

@<SCITEGIC>MOL_PROPERTY
VdW
SciTegic.value.DoubleValue
0.877

@<SCITEGIC>MOL_PROPERTY
VdW6
SciTegic.value.DoubleValue
-7.165

@<SCITEGIC>MOL_PROPERTY
VdW12
SciTegic.value.DoubleValue
8.042

@<SCITEGIC>MOL_PROPERTY
Bond
SciTegic.value.DoubleValue
0.134

@<SCITEGIC>MOL_PROPERTY
Angle
SciTegic.value.DoubleValue
2.513

@<SCITEGIC>MOL_PROPERTY
Pdih
SciTegic.value.DoubleValue
4.990

@<SCITEGIC>MOL_PROPERTY
Idih
SciTegic.value.DoubleValue
0.001

@<SCITEGIC>MOL_PROPERTY
Tether
SciTegic.value.DoubleValue
0.000

@<TRIPOS>MOLECULE
guest-s21_confgen4.mol2 : confsearch ligand conformer 129
          22          21           1
SMALL
USER_CHARGES
 
@<TRIPOS>ATOM
       1    C1      16.912739   18.540881   23.950860 C.2        1 MOL1         0.6145
       2    O1      16.082703   19.338152   23.560603 O.co2      1 MOL1        -0.6735
       3    O2      16.787364   17.336317   23.850376 O.co2      1 MOL1        -0.6735
       4    C2      18.172048   19.083860   24.620524 C.3        1 MOL1        -0.1985
       5    H1      18.632289   18.278702   25.206019 H          1 MOL1         0.0740
       6    H2      17.857721   19.855031   25.333641 H          1 MOL1         0.0740
       7    C3      19.204276   19.683582   23.630659 C.3        1 MOL1        -0.1882
       8    H3      18.721213   20.468717   23.032440 H          1 MOL1         0.0742
       9    H4      20.005744   20.170172   24.202866 H          1 MOL1         0.0742
      10    C4      19.820128   18.618049   22.696341 C.3        1 MOL1        -0.1880
      11    H5      19.025861   18.138409   22.107704 H          1 MOL1         0.0742
      12    H6      20.290163   17.828977   23.299208 H          1 MOL1         0.0742
      13    C5      20.866981   19.231211   21.741572 C.3        1 MOL1        -0.1880
      14    H7      20.396183   20.020148   21.139047 H          1 MOL1         0.0742
      15    H8      21.663857   19.709004   22.327883 H          1 MOL1         0.0742
      16    C6      21.481883   18.167842   20.807661 C.3        1 MOL1        -0.1856
      17    H9      20.687762   17.688925   20.218160 H          1 MOL1         0.0742
      18    H10     21.955286   17.377734   21.406896 H          1 MOL1         0.0742
      19    C7      22.526293   18.783922   19.855291 C.3        1 MOL1        -0.2871
      20    H11     22.072065   19.556478   19.221072 H          1 MOL1         0.0754
      21    H12     22.952905   18.014305   19.198954 H          1 MOL1         0.0754
      22    H13     23.349168   19.243009   20.418774 H          1 MOL1         0.0754
@<TRIPOS>BOND
    1     1     2    1
    2     1     3    2
    3     1     4    1
    4     4     5    1
    5     4     6    1
    6     4     7    1
    7     7     8    1
    8     7     9    1
    9     7    10    1
   10    10    11    1
   11    10    12    1
   12    10    13    1
   13    13    14    1
   14    13    15    1
   15    13    16    1
   16    16    17    1
   17    16    18    1
   18    16    19    1
   19    19    20    1
   20    19    21    1
   21    19    22    1
@<TRIPOS>SUBSTRUCTURE
       1 MOL1            1 RESIDUE      1      MOL     
@<SCITEGIC>MOL_PROPERTY
VConf Rank
SciTegic.value.IntegerValue
129

@<SCITEGIC>MOL_PROPERTY
Conf_Id
SciTegic.value.IntegerValue
43

@<SCITEGIC>MOL_PROPERTY
Delta U+W
SciTegic.value.DoubleValue
-0.129

@<SCITEGIC>MOL_PROPERTY
U+W
SciTegic.value.DoubleValue
-53.289

@<SCITEGIC>MOL_PROPERTY
Grad RMS
SciTegic.value.DoubleValue
0.000000

@<SCITEGIC>MOL_PROPERTY
U
SciTegic.value.DoubleValue
7.937

@<SCITEGIC>MOL_PROPERTY
W
SciTegic.value.DoubleValue
-61.225

@<SCITEGIC>MOL_PROPERTY
W(PB)
SciTegic.value.DoubleValue
-63.523

@<SCITEGIC>MOL_PROPERTY
W(SA)
SciTegic.value.DoubleValue
2.297

@<SCITEGIC>MOL_PROPERTY
Valence
SciTegic.value.DoubleValue
7.358

@<SCITEGIC>MOL_PROPERTY
Coulomb
SciTegic.value.DoubleValue
-0.022

@<SCITEGIC>MOL_PROPERTY
VdW
SciTegic.value.DoubleValue
0.601

@<SCITEGIC>MOL_PROPERTY
VdW6
SciTegic.value.DoubleValue
-7.363

@<SCITEGIC>MOL_PROPERTY
VdW12
SciTegic.value.DoubleValue
7.964

@<SCITEGIC>MOL_PROPERTY
Bond
SciTegic.value.DoubleValue
0.121

@<SCITEGIC>MOL_PROPERTY
Angle
SciTegic.value.DoubleValue
2.425

@<SCITEGIC>MOL_PROPERTY
Pdih
SciTegic.value.DoubleValue
4.811

@<SCITEGIC>MOL_PROPERTY
Idih
SciTegic.value.DoubleValue
0.000

@<SCITEGIC>MOL_PROPERTY
Tether
SciTegic.value.DoubleValue
0.000

@<TRIPOS>MOLECULE
guest-s21_confgen4.mol2 : confsearch ligand conformer 130
          22          21           1
SMALL
USER_CHARGES
 
@<TRIPOS>ATOM
       1    C1      16.508064   20.370087   22.769771 C.2        1 MOL1         0.6145
       2    O1      16.391605   21.502161   22.343450 O.co2      1 MOL1        -0.6735
       3    O2      16.347278   20.071216   23.936654 O.co2      1 MOL1        -0.6735
       4    C2      16.857401   19.261710   21.780532 C.3        1 MOL1        -0.1985
       5    H1      16.215214   19.392292   20.901564 H          1 MOL1         0.0740
       6    H2      16.590950   18.296361   22.227757 H          1 MOL1         0.0740
       7    C3      18.344136   19.255440   21.339421 C.3        1 MOL1        -0.1882
       8    H3      18.473154   18.522287   20.531718 H          1 MOL1         0.0742
       9    H4      18.603341   20.237402   20.919641 H          1 MOL1         0.0742
      10    C4      19.306389   18.911152   22.498353 C.3        1 MOL1        -0.1880
      11    H5      19.034929   17.934921   22.922966 H          1 MOL1         0.0742
      12    H6      19.195402   19.650509   23.303612 H          1 MOL1         0.0742
      13    C5      20.777174   18.879691   22.030101 C.3        1 MOL1        -0.1880
      14    H7      20.891339   18.138980   21.226750 H          1 MOL1         0.0742
      15    H8      21.047876   19.856261   21.605672 H          1 MOL1         0.0742
      16    C6      21.738802   18.536686   23.187109 C.3        1 MOL1        -0.1856
      17    H9      21.472097   17.559543   23.613162 H          1 MOL1         0.0742
      18    H10     21.628675   19.276675   23.991964 H          1 MOL1         0.0742
      19    C7      23.206599   18.506803   22.715900 C.3        1 MOL1        -0.2871
      20    H11     23.352121   17.752189   21.931823 H          1 MOL1         0.0754
      21    H12     23.875984   18.261604   23.550697 H          1 MOL1         0.0754
      22    H13     23.509855   19.482267   22.313526 H          1 MOL1         0.0754
@<TRIPOS>BOND
    1     1     2    1
    2     1     3    2
    3     1     4    1
    4     4     5    1
    5     4     6    1
    6     4     7    1
    7     7     8    1
    8     7     9    1
    9     7    10    1
   10    10    11    1
   11    10    12    1
   12    10    13    1
   13    13    14    1
   14    13    15    1
   15    13    16    1
   16    16    17    1
   17    16    18    1
   18    16    19    1
   19    19    20    1
   20    19    21    1
   21    19    22    1
@<TRIPOS>SUBSTRUCTURE
       1 MOL1            1 RESIDUE      1      MOL     
@<SCITEGIC>MOL_PROPERTY
VConf Rank
SciTegic.value.IntegerValue
130

@<SCITEGIC>MOL_PROPERTY
Conf_Id
SciTegic.value.IntegerValue
44

@<SCITEGIC>MOL_PROPERTY
Delta U+W
SciTegic.value.DoubleValue
-0.155

@<SCITEGIC>MOL_PROPERTY
U+W
SciTegic.value.DoubleValue
-53.314

@<SCITEGIC>MOL_PROPERTY
Grad RMS
SciTegic.value.DoubleValue
0.000000

@<SCITEGIC>MOL_PROPERTY
U
SciTegic.value.DoubleValue
7.937

@<SCITEGIC>MOL_PROPERTY
W
SciTegic.value.DoubleValue
-61.252

@<SCITEGIC>MOL_PROPERTY
W(PB)
SciTegic.value.DoubleValue
-63.556

@<SCITEGIC>MOL_PROPERTY
W(SA)
SciTegic.value.DoubleValue
2.304

@<SCITEGIC>MOL_PROPERTY
Valence
SciTegic.value.DoubleValue
7.358

@<SCITEGIC>MOL_PROPERTY
Coulomb
SciTegic.value.DoubleValue
-0.021

@<SCITEGIC>MOL_PROPERTY
VdW
SciTegic.value.DoubleValue
0.600

@<SCITEGIC>MOL_PROPERTY
VdW6
SciTegic.value.DoubleValue
-7.363

@<SCITEGIC>MOL_PROPERTY
VdW12
SciTegic.value.DoubleValue
7.964

@<SCITEGIC>MOL_PROPERTY
Bond
SciTegic.value.DoubleValue
0.121

@<SCITEGIC>MOL_PROPERTY
Angle
SciTegic.value.DoubleValue
2.425

@<SCITEGIC>MOL_PROPERTY
Pdih
SciTegic.value.DoubleValue
4.811

@<SCITEGIC>MOL_PROPERTY
Idih
SciTegic.value.DoubleValue
0.001

@<SCITEGIC>MOL_PROPERTY
Tether
SciTegic.value.DoubleValue
0.000

@<TRIPOS>MOLECULE
guest-s21_confgen4.mol2 : confsearch ligand conformer 131
          22          21           1
SMALL
USER_CHARGES
 
@<TRIPOS>ATOM
       1    C1      20.829217   17.538696   25.327583 C.2        1 MOL1         0.6145
       2    O1      21.500615   18.308694   25.985802 O.co2      1 MOL1        -0.6735
       3    O2      21.169234   16.400485   25.071201 O.co2      1 MOL1        -0.6735
       4    C2      19.476997   18.023418   24.811972 C.3        1 MOL1        -0.1985
       5    H1      18.971249   18.527125   25.644156 H          1 MOL1         0.0740
       6    H2      18.867110   17.149699   24.552082 H          1 MOL1         0.0740
       7    C3      19.570557   18.989791   23.602429 C.3        1 MOL1        -0.1882
       8    H3      18.571524   19.399702   23.407308 H          1 MOL1         0.0742
       9    H4      20.216809   19.838983   23.864407 H          1 MOL1         0.0742
      10    C4      20.107432   18.295406   22.327750 C.3        1 MOL1        -0.1880
      11    H5      19.436892   17.473099   22.043166 H          1 MOL1         0.0742
      12    H6      21.081028   17.837361   22.549782 H          1 MOL1         0.0742
      13    C5      20.285298   19.257927   21.129525 C.3        1 MOL1        -0.1880
      14    H7      20.955745   20.080199   21.414636 H          1 MOL1         0.0742
      15    H8      20.788944   18.713851   20.318831 H          1 MOL1         0.0742
      16    C6      18.953675   19.832186   20.595267 C.3        1 MOL1        -0.1856
      17    H9      18.470786   20.448104   21.365123 H          1 MOL1         0.0742
      18    H10     18.262906   19.010377   20.361467 H          1 MOL1         0.0742
      19    C7      19.174173   20.690231   19.333174 C.3        1 MOL1        -0.2871
      20    H11     19.840795   21.536350   19.545498 H          1 MOL1         0.0754
      21    H12     18.220587   21.093272   18.968080 H          1 MOL1         0.0754
      22    H13     19.621487   20.095194   18.526205 H          1 MOL1         0.0754
@<TRIPOS>BOND
    1     1     2    1
    2     1     3    2
    3     1     4    1
    4     4     5    1
    5     4     6    1
    6     4     7    1
    7     7     8    1
    8     7     9    1
    9     7    10    1
   10    10    11    1
   11    10    12    1
   12    10    13    1
   13    13    14    1
   14    13    15    1
   15    13    16    1
   16    16    17    1
   17    16    18    1
   18    16    19    1
   19    19    20    1
   20    19    21    1
   21    19    22    1
@<TRIPOS>SUBSTRUCTURE
       1 MOL1            1 RESIDUE      1      MOL     
@<SCITEGIC>MOL_PROPERTY
VConf Rank
SciTegic.value.IntegerValue
131

@<SCITEGIC>MOL_PROPERTY
Conf_Id
SciTegic.value.IntegerValue
53

@<SCITEGIC>MOL_PROPERTY
Delta U+W
SciTegic.value.DoubleValue
0.723

@<SCITEGIC>MOL_PROPERTY
U+W
SciTegic.value.DoubleValue
-52.436

@<SCITEGIC>MOL_PROPERTY
Grad RMS
SciTegic.value.DoubleValue
0.000000

@<SCITEGIC>MOL_PROPERTY
U
SciTegic.value.DoubleValue
8.587

@<SCITEGIC>MOL_PROPERTY
W
SciTegic.value.DoubleValue
-61.022

@<SCITEGIC>MOL_PROPERTY
W(PB)
SciTegic.value.DoubleValue
-63.285

@<SCITEGIC>MOL_PROPERTY
W(SA)
SciTegic.value.DoubleValue
2.263

@<SCITEGIC>MOL_PROPERTY
Valence
SciTegic.value.DoubleValue
7.933

@<SCITEGIC>MOL_PROPERTY
Coulomb
SciTegic.value.DoubleValue
-0.124

@<SCITEGIC>MOL_PROPERTY
VdW
SciTegic.value.DoubleValue
0.778

@<SCITEGIC>MOL_PROPERTY
VdW6
SciTegic.value.DoubleValue
-7.981

@<SCITEGIC>MOL_PROPERTY
VdW12
SciTegic.value.DoubleValue
8.759

@<SCITEGIC>MOL_PROPERTY
Bond
SciTegic.value.DoubleValue
0.160

@<SCITEGIC>MOL_PROPERTY
Angle
SciTegic.value.DoubleValue
2.698

@<SCITEGIC>MOL_PROPERTY
Pdih
SciTegic.value.DoubleValue
5.074

@<SCITEGIC>MOL_PROPERTY
Idih
SciTegic.value.DoubleValue
0.001

@<SCITEGIC>MOL_PROPERTY
Tether
SciTegic.value.DoubleValue
0.000

@<TRIPOS>MOLECULE
guest-s21_confgen4.mol2 : confsearch ligand conformer 132
          22          21           1
SMALL
USER_CHARGES
 
@<TRIPOS>ATOM
       1    C1      19.500878   21.915824   20.753730 C.2        1 MOL1         0.6145
       2    O1      19.752700   21.749981   19.576594 O.co2      1 MOL1        -0.6735
       3    O2      19.138596   22.977440   21.220962 O.co2      1 MOL1        -0.6735
       4    C2      19.624738   20.721023   21.692404 C.3        1 MOL1        -0.1985
       5    H1      19.908060   21.094110   22.683775 H          1 MOL1         0.0740
       6    H2      20.447324   20.096348   21.326532 H          1 MOL1         0.0740
       7    C3      18.318786   19.892065   21.784353 C.3        1 MOL1        -0.1882
       8    H3      17.487028   20.570654   22.019124 H          1 MOL1         0.0742
       9    H4      18.094599   19.460730   20.798987 H          1 MOL1         0.0742
      10    C4      18.350091   18.766733   22.848925 C.3        1 MOL1        -0.1880
      11    H5      17.361579   18.287378   22.852211 H          1 MOL1         0.0742
      12    H6      18.475245   19.198741   23.851252 H          1 MOL1         0.0742
      13    C5      19.416836   17.670735   22.598824 C.3        1 MOL1        -0.1880
      14    H7      18.998832   16.701972   22.905029 H          1 MOL1         0.0742
      15    H8      19.626774   17.586623   21.523736 H          1 MOL1         0.0742
      16    C6      20.727063   17.899209   23.387405 C.3        1 MOL1        -0.1856
      17    H9      20.508475   17.923547   24.463891 H          1 MOL1         0.0742
      18    H10     21.165745   18.871794   23.134418 H          1 MOL1         0.0742
      19    C7      21.758833   16.789298   23.103010 C.3        1 MOL1        -0.2871
      20    H11     21.364285   15.804191   23.384485 H          1 MOL1         0.0754
      21    H12     22.679872   16.961571   23.674885 H          1 MOL1         0.0754
      22    H13     22.021648   16.761900   22.037394 H          1 MOL1         0.0754
@<TRIPOS>BOND
    1     1     2    1
    2     1     3    2
    3     1     4    1
    4     4     5    1
    5     4     6    1
    6     4     7    1
    7     7     8    1
    8     7     9    1
    9     7    10    1
   10    10    11    1
   11    10    12    1
   12    10    13    1
   13    13    14    1
   14    13    15    1
   15    13    16    1
   16    16    17    1
   17    16    18    1
   18    16    19    1
   19    19    20    1
   20    19    21    1
   21    19    22    1
@<TRIPOS>SUBSTRUCTURE
       1 MOL1            1 RESIDUE      1      MOL     
@<SCITEGIC>MOL_PROPERTY
VConf Rank
SciTegic.value.IntegerValue
132

@<SCITEGIC>MOL_PROPERTY
Conf_Id
SciTegic.value.IntegerValue
5

@<SCITEGIC>MOL_PROPERTY
Delta U+W
SciTegic.value.DoubleValue
2.167

@<SCITEGIC>MOL_PROPERTY
U+W
SciTegic.value.DoubleValue
-50.993

@<SCITEGIC>MOL_PROPERTY
Grad RMS
SciTegic.value.DoubleValue
0.000000

@<SCITEGIC>MOL_PROPERTY
U
SciTegic.value.DoubleValue
10.045

@<SCITEGIC>MOL_PROPERTY
W
SciTegic.value.DoubleValue
-61.037

@<SCITEGIC>MOL_PROPERTY
W(PB)
SciTegic.value.DoubleValue
-63.303

@<SCITEGIC>MOL_PROPERTY
W(SA)
SciTegic.value.DoubleValue
2.266

@<SCITEGIC>MOL_PROPERTY
Valence
SciTegic.value.DoubleValue
10.100

@<SCITEGIC>MOL_PROPERTY
Coulomb
SciTegic.value.DoubleValue
-0.883

@<SCITEGIC>MOL_PROPERTY
VdW
SciTegic.value.DoubleValue
0.828

@<SCITEGIC>MOL_PROPERTY
VdW6
SciTegic.value.DoubleValue
-8.177

@<SCITEGIC>MOL_PROPERTY
VdW12
SciTegic.value.DoubleValue
9.005

@<SCITEGIC>MOL_PROPERTY
Bond
SciTegic.value.DoubleValue
0.182

@<SCITEGIC>MOL_PROPERTY
Angle
SciTegic.value.DoubleValue
2.988

@<SCITEGIC>MOL_PROPERTY
Pdih
SciTegic.value.DoubleValue
6.930

@<SCITEGIC>MOL_PROPERTY
Idih
SciTegic.value.DoubleValue
0.001

@<SCITEGIC>MOL_PROPERTY
Tether
SciTegic.value.DoubleValue
0.000

@<TRIPOS>MOLECULE
guest-s21_confgen4.mol2 : confsearch ligand conformer 133
          22          21           1
SMALL
USER_CHARGES
 
@<TRIPOS>ATOM
       1    C1      21.314787   17.203884   19.856000 C.2        1 MOL1         0.6145
       2    O1      22.080439   16.385405   20.325509 O.co2      1 MOL1        -0.6735
       3    O2      21.184495   17.396361   18.663288 O.co2      1 MOL1        -0.6735
       4    C2      20.488785   18.051951   20.816471 C.3        1 MOL1        -0.1985
       5    H1      20.259011   17.432964   21.690994 H          1 MOL1         0.0740
       6    H2      19.539421   18.296508   20.325371 H          1 MOL1         0.0740
       7    C3      21.217526   19.348595   21.250976 C.3        1 MOL1        -0.1882
       8    H3      22.124856   19.082758   21.810741 H          1 MOL1         0.0742
       9    H4      21.556460   19.880228   20.351025 H          1 MOL1         0.0742
      10    C4      20.350867   20.315989   22.095797 C.3        1 MOL1        -0.1880
      11    H5      19.491666   20.665102   21.506860 H          1 MOL1         0.0742
      12    H6      20.956105   21.210071   22.298903 H          1 MOL1         0.0742
      13    C5      19.873700   19.738135   23.452302 C.3        1 MOL1        -0.1880
      14    H7      20.585974   18.983251   23.812550 H          1 MOL1         0.0742
      15    H8      19.882183   20.545886   24.196922 H          1 MOL1         0.0742
      16    C6      18.445114   19.149000   23.399186 C.3        1 MOL1        -0.1856
      17    H9      18.382091   18.355652   22.644870 H          1 MOL1         0.0742
      18    H10     17.736461   19.930798   23.092922 H          1 MOL1         0.0742
      19    C7      18.016392   18.581711   24.767292 C.3        1 MOL1        -0.2871
      20    H11     18.688980   17.774301   25.085210 H          1 MOL1         0.0754
      21    H12     16.998475   18.174073   24.715247 H          1 MOL1         0.0754
      22    H13     18.029683   19.362951   25.538537 H          1 MOL1         0.0754
@<TRIPOS>BOND
    1     1     2    1
    2     1     3    2
    3     1     4    1
    4     4     5    1
    5     4     6    1
    6     4     7    1
    7     7     8    1
    8     7     9    1
    9     7    10    1
   10    10    11    1
   11    10    12    1
   12    10    13    1
   13    13    14    1
   14    13    15    1
   15    13    16    1
   16    16    17    1
   17    16    18    1
   18    16    19    1
   19    19    20    1
   20    19    21    1
   21    19    22    1
@<TRIPOS>SUBSTRUCTURE
       1 MOL1            1 RESIDUE      1      MOL     
@<SCITEGIC>MOL_PROPERTY
VConf Rank
SciTegic.value.IntegerValue
133

@<SCITEGIC>MOL_PROPERTY
Conf_Id
SciTegic.value.IntegerValue
6

@<SCITEGIC>MOL_PROPERTY
Delta U+W
SciTegic.value.DoubleValue
2.118

@<SCITEGIC>MOL_PROPERTY
U+W
SciTegic.value.DoubleValue
-51.042

@<SCITEGIC>MOL_PROPERTY
Grad RMS
SciTegic.value.DoubleValue
0.000000

@<SCITEGIC>MOL_PROPERTY
U
SciTegic.value.DoubleValue
10.045

@<SCITEGIC>MOL_PROPERTY
W
SciTegic.value.DoubleValue
-61.086

@<SCITEGIC>MOL_PROPERTY
W(PB)
SciTegic.value.DoubleValue
-63.356

@<SCITEGIC>MOL_PROPERTY
W(SA)
SciTegic.value.DoubleValue
2.270

@<SCITEGIC>MOL_PROPERTY
Valence
SciTegic.value.DoubleValue
10.100

@<SCITEGIC>MOL_PROPERTY
Coulomb
SciTegic.value.DoubleValue
-0.883

@<SCITEGIC>MOL_PROPERTY
VdW
SciTegic.value.DoubleValue
0.828

@<SCITEGIC>MOL_PROPERTY
VdW6
SciTegic.value.DoubleValue
-8.177

@<SCITEGIC>MOL_PROPERTY
VdW12
SciTegic.value.DoubleValue
9.004

@<SCITEGIC>MOL_PROPERTY
Bond
SciTegic.value.DoubleValue
0.182

@<SCITEGIC>MOL_PROPERTY
Angle
SciTegic.value.DoubleValue
2.988

@<SCITEGIC>MOL_PROPERTY
Pdih
SciTegic.value.DoubleValue
6.930

@<SCITEGIC>MOL_PROPERTY
Idih
SciTegic.value.DoubleValue
0.001

@<SCITEGIC>MOL_PROPERTY
Tether
SciTegic.value.DoubleValue
0.000

@<TRIPOS>MOLECULE
guest-s21_confgen4.mol2 : confsearch ligand conformer 134
          22          21           1
SMALL
USER_CHARGES
 
@<TRIPOS>ATOM
       1    C1      20.975975   20.511325   24.391853 C.2        1 MOL1         0.6145
       2    O1      22.011612   20.849849   23.853010 O.co2      1 MOL1        -0.6735
       3    O2      20.927245   19.719643   25.312679 O.co2      1 MOL1        -0.6735
       4    C2      19.673625   21.167149   23.936623 C.3        1 MOL1        -0.1985
       5    H1      19.772539   22.235819   24.159539 H          1 MOL1         0.0740
       6    H2      18.849994   20.792381   24.556319 H          1 MOL1         0.0740
       7    C3      19.334968   20.994423   22.429122 C.3        1 MOL1        -0.1882
       8    H3      18.620510   21.780628   22.150101 H          1 MOL1         0.0742
       9    H4      20.232597   21.172356   21.820702 H          1 MOL1         0.0742
      10    C4      18.703297   19.629951   22.057476 C.3        1 MOL1        -0.1880
      11    H5      18.367475   19.682041   21.012735 H          1 MOL1         0.0742
      12    H6      17.802271   19.462458   22.663223 H          1 MOL1         0.0742
      13    C5      19.663088   18.428376   22.210860 C.3        1 MOL1        -0.1880
      14    H7      20.606234   18.640382   21.688774 H          1 MOL1         0.0742
      15    H8      19.908395   18.279660   23.269996 H          1 MOL1         0.0742
      16    C6      19.044156   17.129091   21.653430 C.3        1 MOL1        -0.1856
      17    H9      18.801103   17.259987   20.589876 H          1 MOL1         0.0742
      18    H10     18.099774   16.916657   22.173457 H          1 MOL1         0.0742
      19    C7      19.999622   15.929867   21.815802 C.3        1 MOL1        -0.2871
      20    H11     20.941416   16.102915   21.278728 H          1 MOL1         0.0754
      21    H12     19.543988   15.014821   21.415663 H          1 MOL1         0.0754
      22    H13     20.235599   15.756750   22.874030 H          1 MOL1         0.0754
@<TRIPOS>BOND
    1     1     2    1
    2     1     3    2
    3     1     4    1
    4     4     5    1
    5     4     6    1
    6     4     7    1
    7     7     8    1
    8     7     9    1
    9     7    10    1
   10    10    11    1
   11    10    12    1
   12    10    13    1
   13    13    14    1
   14    13    15    1
   15    13    16    1
   16    16    17    1
   17    16    18    1
   18    16    19    1
   19    19    20    1
   20    19    21    1
   21    19    22    1
@<TRIPOS>SUBSTRUCTURE
       1 MOL1            1 RESIDUE      1      MOL     
@<SCITEGIC>MOL_PROPERTY
VConf Rank
SciTegic.value.IntegerValue
134

@<SCITEGIC>MOL_PROPERTY
Conf_Id
SciTegic.value.IntegerValue
8

@<SCITEGIC>MOL_PROPERTY
Delta U+W
SciTegic.value.DoubleValue
1.886

@<SCITEGIC>MOL_PROPERTY
U+W
SciTegic.value.DoubleValue
-51.274

@<SCITEGIC>MOL_PROPERTY
Grad RMS
SciTegic.value.DoubleValue
0.000000

@<SCITEGIC>MOL_PROPERTY
U
SciTegic.value.DoubleValue
11.237

@<SCITEGIC>MOL_PROPERTY
W
SciTegic.value.DoubleValue
-62.510

@<SCITEGIC>MOL_PROPERTY
W(PB)
SciTegic.value.DoubleValue
-64.777

@<SCITEGIC>MOL_PROPERTY
W(SA)
SciTegic.value.DoubleValue
2.267

@<SCITEGIC>MOL_PROPERTY
Valence
SciTegic.value.DoubleValue
9.029

@<SCITEGIC>MOL_PROPERTY
Coulomb
SciTegic.value.DoubleValue
1.667

@<SCITEGIC>MOL_PROPERTY
VdW
SciTegic.value.DoubleValue
0.540

@<SCITEGIC>MOL_PROPERTY
VdW6
SciTegic.value.DoubleValue
-8.825

@<SCITEGIC>MOL_PROPERTY
VdW12
SciTegic.value.DoubleValue
9.365

@<SCITEGIC>MOL_PROPERTY
Bond
SciTegic.value.DoubleValue
0.186

@<SCITEGIC>MOL_PROPERTY
Angle
SciTegic.value.DoubleValue
3.195

@<SCITEGIC>MOL_PROPERTY
Pdih
SciTegic.value.DoubleValue
5.642

@<SCITEGIC>MOL_PROPERTY
Idih
SciTegic.value.DoubleValue
0.007

@<SCITEGIC>MOL_PROPERTY
Tether
SciTegic.value.DoubleValue
0.000

@<TRIPOS>MOLECULE
guest-s21_confgen4.mol2 : confsearch ligand conformer 135
          22          21           1
SMALL
USER_CHARGES
 
@<TRIPOS>ATOM
       1    C1      19.115567   16.772888   24.576700 C.2        1 MOL1         0.6145
       2    O1      20.247762   16.354143   24.436873 O.co2      1 MOL1        -0.6735
       3    O2      18.133448   16.057486   24.607518 O.co2      1 MOL1        -0.6735
       4    C2      18.916318   18.275625   24.753467 C.3        1 MOL1        -0.1985
       5    H1      19.885016   18.734183   24.981630 H          1 MOL1         0.0740
       6    H2      18.290190   18.418441   25.641886 H          1 MOL1         0.0740
       7    C3      18.248649   18.975659   23.538018 C.3        1 MOL1        -0.1882
       8    H3      17.249152   18.543779   23.390330 H          1 MOL1         0.0742
       9    H4      18.092731   20.036909   23.774172 H          1 MOL1         0.0742
      10    C4      19.040408   18.859645   22.211975 C.3        1 MOL1        -0.1880
      11    H5      18.431557   19.303830   21.414483 H          1 MOL1         0.0742
      12    H6      19.170626   17.800950   21.949047 H          1 MOL1         0.0742
      13    C5      20.421971   19.557350   22.255982 C.3        1 MOL1        -0.1880
      14    H7      20.297808   20.611684   22.537860 H          1 MOL1         0.0742
      15    H8      21.037227   19.093634   23.037878 H          1 MOL1         0.0742
      16    C6      21.199037   19.465774   20.921898 C.3        1 MOL1        -0.1856
      17    H9      21.311074   18.412444   20.629800 H          1 MOL1         0.0742
      18    H10     22.214979   19.853058   21.080171 H          1 MOL1         0.0742
      19    C7      20.541189   20.258744   19.771573 C.3        1 MOL1        -0.2871
      20    H11     19.570172   19.831354   19.492623 H          1 MOL1         0.0754
      21    H12     21.179908   20.240173   18.879054 H          1 MOL1         0.0754
      22    H13     20.387714   21.308077   20.055200 H          1 MOL1         0.0754
@<TRIPOS>BOND
    1     1     2    1
    2     1     3    2
    3     1     4    1
    4     4     5    1
    5     4     6    1
    6     4     7    1
    7     7     8    1
    8     7     9    1
    9     7    10    1
   10    10    11    1
   11    10    12    1
   12    10    13    1
   13    13    14    1
   14    13    15    1
   15    13    16    1
   16    16    17    1
   17    16    18    1
   18    16    19    1
   19    19    20    1
   20    19    21    1
   21    19    22    1
@<TRIPOS>SUBSTRUCTURE
       1 MOL1            1 RESIDUE      1      MOL     
@<SCITEGIC>MOL_PROPERTY
VConf Rank
SciTegic.value.IntegerValue
135

@<SCITEGIC>MOL_PROPERTY
Conf_Id
SciTegic.value.IntegerValue
93

@<SCITEGIC>MOL_PROPERTY
Delta U+W
SciTegic.value.DoubleValue
1.836

@<SCITEGIC>MOL_PROPERTY
U+W
SciTegic.value.DoubleValue
-51.323

@<SCITEGIC>MOL_PROPERTY
Grad RMS
SciTegic.value.DoubleValue
0.000000

@<SCITEGIC>MOL_PROPERTY
U
SciTegic.value.DoubleValue
10.427

@<SCITEGIC>MOL_PROPERTY
W
SciTegic.value.DoubleValue
-61.751

@<SCITEGIC>MOL_PROPERTY
W(PB)
SciTegic.value.DoubleValue
-63.980

@<SCITEGIC>MOL_PROPERTY
W(SA)
SciTegic.value.DoubleValue
2.230

@<SCITEGIC>MOL_PROPERTY
Valence
SciTegic.value.DoubleValue
8.446

@<SCITEGIC>MOL_PROPERTY
Coulomb
SciTegic.value.DoubleValue
1.306

@<SCITEGIC>MOL_PROPERTY
VdW
SciTegic.value.DoubleValue
0.676

@<SCITEGIC>MOL_PROPERTY
VdW6
SciTegic.value.DoubleValue
-8.928

@<SCITEGIC>MOL_PROPERTY
VdW12
SciTegic.value.DoubleValue
9.604

@<SCITEGIC>MOL_PROPERTY
Bond
SciTegic.value.DoubleValue
0.209

@<SCITEGIC>MOL_PROPERTY
Angle
SciTegic.value.DoubleValue
3.066

@<SCITEGIC>MOL_PROPERTY
Pdih
SciTegic.value.DoubleValue
5.170

@<SCITEGIC>MOL_PROPERTY
Idih
SciTegic.value.DoubleValue
0.001

@<SCITEGIC>MOL_PROPERTY
Tether
SciTegic.value.DoubleValue
0.000

@<TRIPOS>MOLECULE
guest-s21_confgen4.mol2 : confsearch ligand conformer 136
          22          21           1
SMALL
USER_CHARGES
 
@<TRIPOS>ATOM
       1    C1      20.317907   20.452012   25.168362 C.2        1 MOL1         0.6145
       2    O1      20.617853   19.863857   26.188858 O.co2      1 MOL1        -0.6735
       3    O2      19.313129   21.125465   25.051542 O.co2      1 MOL1        -0.6735
       4    C2      21.271664   20.362828   23.980272 C.3        1 MOL1        -0.1985
       5    H1      22.275858   20.599520   24.350803 H          1 MOL1         0.0740
       6    H2      21.013945   21.149945   23.262820 H          1 MOL1         0.0740
       7    C3      21.295563   18.972768   23.287226 C.3        1 MOL1        -0.1882
       8    H3      22.046029   18.982634   22.485332 H          1 MOL1         0.0742
       9    H4      21.634545   18.223536   24.015971 H          1 MOL1         0.0742
      10    C4      19.933949   18.518720   22.705350 C.3        1 MOL1        -0.1880
      11    H5      19.184885   18.471512   23.507597 H          1 MOL1         0.0742
      12    H6      20.050963   17.494060   22.330684 H          1 MOL1         0.0742
      13    C5      19.416570   19.429370   21.564965 C.3        1 MOL1        -0.1880
      14    H7      19.276628   20.447795   21.949884 H          1 MOL1         0.0742
      15    H8      20.171185   19.495033   20.769517 H          1 MOL1         0.0742
      16    C6      18.071159   18.958105   20.965155 C.3        1 MOL1        -0.1856
      17    H9      17.706594   19.728921   20.272255 H          1 MOL1         0.0742
      18    H10     17.318584   18.876587   21.761626 H          1 MOL1         0.0742
      19    C7      18.172930   17.617862   20.204760 C.3        1 MOL1        -0.2871
      20    H11     18.416723   16.789415   20.881215 H          1 MOL1         0.0754
      21    H12     18.944792   17.665777   19.425636 H          1 MOL1         0.0754
      22    H13     17.217725   17.379089   19.719509 H          1 MOL1         0.0754
@<TRIPOS>BOND
    1     1     2    1
    2     1     3    2
    3     1     4    1
    4     4     5    1
    5     4     6    1
    6     4     7    1
    7     7     8    1
    8     7     9    1
    9     7    10    1
   10    10    11    1
   11    10    12    1
   12    10    13    1
   13    13    14    1
   14    13    15    1
   15    13    16    1
   16    16    17    1
   17    16    18    1
   18    16    19    1
   19    19    20    1
   20    19    21    1
   21    19    22    1
@<TRIPOS>SUBSTRUCTURE
       1 MOL1            1 RESIDUE      1      MOL     
@<SCITEGIC>MOL_PROPERTY
VConf Rank
SciTegic.value.IntegerValue
136

@<SCITEGIC>MOL_PROPERTY
Conf_Id
SciTegic.value.IntegerValue
70

@<SCITEGIC>MOL_PROPERTY
Delta U+W
SciTegic.value.DoubleValue
1.803

@<SCITEGIC>MOL_PROPERTY
U+W
SciTegic.value.DoubleValue
-51.356

@<SCITEGIC>MOL_PROPERTY
Grad RMS
SciTegic.value.DoubleValue
0.000000

@<SCITEGIC>MOL_PROPERTY
U
SciTegic.value.DoubleValue
10.428

@<SCITEGIC>MOL_PROPERTY
W
SciTegic.value.DoubleValue
-61.784

@<SCITEGIC>MOL_PROPERTY
W(PB)
SciTegic.value.DoubleValue
-64.014

@<SCITEGIC>MOL_PROPERTY
W(SA)
SciTegic.value.DoubleValue
2.230

@<SCITEGIC>MOL_PROPERTY
Valence
SciTegic.value.DoubleValue
8.445

@<SCITEGIC>MOL_PROPERTY
Coulomb
SciTegic.value.DoubleValue
1.306

@<SCITEGIC>MOL_PROPERTY
VdW
SciTegic.value.DoubleValue
0.676

@<SCITEGIC>MOL_PROPERTY
VdW6
SciTegic.value.DoubleValue
-8.929

@<SCITEGIC>MOL_PROPERTY
VdW12
SciTegic.value.DoubleValue
9.605

@<SCITEGIC>MOL_PROPERTY
Bond
SciTegic.value.DoubleValue
0.209

@<SCITEGIC>MOL_PROPERTY
Angle
SciTegic.value.DoubleValue
3.066

@<SCITEGIC>MOL_PROPERTY
Pdih
SciTegic.value.DoubleValue
5.170

@<SCITEGIC>MOL_PROPERTY
Idih
SciTegic.value.DoubleValue
0.001

@<SCITEGIC>MOL_PROPERTY
Tether
SciTegic.value.DoubleValue
0.000

@<TRIPOS>MOLECULE
guest-s21_confgen4.mol2 : confsearch ligand conformer 137
          22          21           1
SMALL
USER_CHARGES
 
@<TRIPOS>ATOM
       1    C1      20.243167   18.633648   19.126303 C.2        1 MOL1         0.6145
       2    O1      20.170208   19.763207   18.683939 O.co2      1 MOL1        -0.6735
       3    O2      19.559362   17.710698   18.729499 O.co2      1 MOL1        -0.6735
       4    C2      21.264828   18.356610   20.225646 C.3        1 MOL1        -0.1985
       5    H1      22.203842   18.839568   19.930618 H          1 MOL1         0.0740
       6    H2      21.459670   17.277824   20.258769 H          1 MOL1         0.0740
       7    C3      20.837139   18.867774   21.625923 C.3        1 MOL1        -0.1882
       8    H3      21.677787   18.746168   22.322191 H          1 MOL1         0.0742
       9    H4      20.629329   19.944116   21.563188 H          1 MOL1         0.0742
      10    C4      19.602918   18.115788   22.178894 C.3        1 MOL1        -0.1880
      11    H5      19.800938   17.035593   22.150489 H          1 MOL1         0.0742
      12    H6      18.736836   18.288513   21.525156 H          1 MOL1         0.0742
      13    C5      19.240033   18.510750   23.630048 C.3        1 MOL1        -0.1880
      14    H7      18.438503   17.846591   23.981236 H          1 MOL1         0.0742
      15    H8      20.101997   18.331585   24.287151 H          1 MOL1         0.0742
      16    C6      18.773558   19.977333   23.770424 C.3        1 MOL1        -0.1856
      17    H9      17.945543   20.170905   23.074588 H          1 MOL1         0.0742
      18    H10     19.587959   20.661184   23.497555 H          1 MOL1         0.0742
      19    C7      18.317026   20.290221   25.209665 C.3        1 MOL1        -0.2871
      20    H11     17.475497   19.649232   25.503458 H          1 MOL1         0.0754
      21    H12     17.992047   21.335395   25.293678 H          1 MOL1         0.0754
      22    H13     19.135261   20.131094   25.924187 H          1 MOL1         0.0754
@<TRIPOS>BOND
    1     1     2    1
    2     1     3    2
    3     1     4    1
    4     4     5    1
    5     4     6    1
    6     4     7    1
    7     7     8    1
    8     7     9    1
    9     7    10    1
   10    10    11    1
   11    10    12    1
   12    10    13    1
   13    13    14    1
   14    13    15    1
   15    13    16    1
   16    16    17    1
   17    16    18    1
   18    16    19    1
   19    19    20    1
   20    19    21    1
   21    19    22    1
@<TRIPOS>SUBSTRUCTURE
       1 MOL1            1 RESIDUE      1      MOL     
@<SCITEGIC>MOL_PROPERTY
VConf Rank
SciTegic.value.IntegerValue
137

@<SCITEGIC>MOL_PROPERTY
Conf_Id
SciTegic.value.IntegerValue
85

@<SCITEGIC>MOL_PROPERTY
Delta U+W
SciTegic.value.DoubleValue
0.707

@<SCITEGIC>MOL_PROPERTY
U+W
SciTegic.value.DoubleValue
-52.452

@<SCITEGIC>MOL_PROPERTY
Grad RMS
SciTegic.value.DoubleValue
0.000000

@<SCITEGIC>MOL_PROPERTY
U
SciTegic.value.DoubleValue
8.925

@<SCITEGIC>MOL_PROPERTY
W
SciTegic.value.DoubleValue
-61.378

@<SCITEGIC>MOL_PROPERTY
W(PB)
SciTegic.value.DoubleValue
-63.661

@<SCITEGIC>MOL_PROPERTY
W(SA)
SciTegic.value.DoubleValue
2.283

@<SCITEGIC>MOL_PROPERTY
Valence
SciTegic.value.DoubleValue
7.881

@<SCITEGIC>MOL_PROPERTY
Coulomb
SciTegic.value.DoubleValue
0.349

@<SCITEGIC>MOL_PROPERTY
VdW
SciTegic.value.DoubleValue
0.695

@<SCITEGIC>MOL_PROPERTY
VdW6
SciTegic.value.DoubleValue
-8.049

@<SCITEGIC>MOL_PROPERTY
VdW12
SciTegic.value.DoubleValue
8.743

@<SCITEGIC>MOL_PROPERTY
Bond
SciTegic.value.DoubleValue
0.156

@<SCITEGIC>MOL_PROPERTY
Angle
SciTegic.value.DoubleValue
2.660

@<SCITEGIC>MOL_PROPERTY
Pdih
SciTegic.value.DoubleValue
5.064

@<SCITEGIC>MOL_PROPERTY
Idih
SciTegic.value.DoubleValue
0.001

@<SCITEGIC>MOL_PROPERTY
Tether
SciTegic.value.DoubleValue
0.000

@<TRIPOS>MOLECULE
guest-s21_confgen4.mol2 : confsearch ligand conformer 138
          22          21           1
SMALL
USER_CHARGES
 
@<TRIPOS>ATOM
       1    C1      20.132498   20.249671   19.352136 C.2        1 MOL1         0.6145
       2    O1      19.327353   21.142179   19.172943 O.co2      1 MOL1        -0.6735
       3    O2      21.313279   20.345312   19.080874 O.co2      1 MOL1        -0.6735
       4    C2      19.631344   18.927844   19.927475 C.3        1 MOL1        -0.1985
       5    H1      20.063426   18.123025   19.321206 H          1 MOL1         0.0740
       6    H2      18.543920   18.876852   19.794193 H          1 MOL1         0.0740
       7    C3      19.999038   18.706356   21.417921 C.3        1 MOL1        -0.1882
       8    H3      19.736983   17.675911   21.688879 H          1 MOL1         0.0742
       9    H4      21.085825   18.806827   21.544715 H          1 MOL1         0.0742
      10    C4      19.265933   19.685768   22.363644 C.3        1 MOL1        -0.1880
      11    H5      18.182486   19.518818   22.293148 H          1 MOL1         0.0742
      12    H6      19.440130   20.715334   22.022337 H          1 MOL1         0.0742
      13    C5      19.706852   19.589135   23.845797 C.3        1 MOL1        -0.1880
      14    H7      20.770920   19.845868   23.939482 H          1 MOL1         0.0742
      15    H8      19.163179   20.364498   24.402663 H          1 MOL1         0.0742
      16    C6      19.422725   18.223606   24.519967 C.3        1 MOL1        -0.1856
      17    H9      18.562644   17.734252   24.042471 H          1 MOL1         0.0742
      18    H10     19.131407   18.401583   25.564360 H          1 MOL1         0.0742
      19    C7      20.645059   17.278657   24.520364 C.3        1 MOL1        -0.2871
      20    H11     20.981549   17.045521   23.503838 H          1 MOL1         0.0754
      21    H12     20.397884   16.331572   25.017108 H          1 MOL1         0.0754
      22    H13     21.487287   17.730758   25.060126 H          1 MOL1         0.0754
@<TRIPOS>BOND
    1     1     2    1
    2     1     3    2
    3     1     4    1
    4     4     5    1
    5     4     6    1
    6     4     7    1
    7     7     8    1
    8     7     9    1
    9     7    10    1
   10    10    11    1
   11    10    12    1
   12    10    13    1
   13    13    14    1
   14    13    15    1
   15    13    16    1
   16    16    17    1
   17    16    18    1
   18    16    19    1
   19    19    20    1
   20    19    21    1
   21    19    22    1
@<TRIPOS>SUBSTRUCTURE
       1 MOL1            1 RESIDUE      1      MOL     
@<SCITEGIC>MOL_PROPERTY
VConf Rank
SciTegic.value.IntegerValue
138

@<SCITEGIC>MOL_PROPERTY
Conf_Id
SciTegic.value.IntegerValue
82

@<SCITEGIC>MOL_PROPERTY
Delta U+W
SciTegic.value.DoubleValue
3.438

@<SCITEGIC>MOL_PROPERTY
U+W
SciTegic.value.DoubleValue
-49.721

@<SCITEGIC>MOL_PROPERTY
Grad RMS
SciTegic.value.DoubleValue
0.000000

@<SCITEGIC>MOL_PROPERTY
U
SciTegic.value.DoubleValue
11.773

@<SCITEGIC>MOL_PROPERTY
W
SciTegic.value.DoubleValue
-61.495

@<SCITEGIC>MOL_PROPERTY
W(PB)
SciTegic.value.DoubleValue
-63.749

@<SCITEGIC>MOL_PROPERTY
W(SA)
SciTegic.value.DoubleValue
2.254

@<SCITEGIC>MOL_PROPERTY
Valence
SciTegic.value.DoubleValue
10.419

@<SCITEGIC>MOL_PROPERTY
Coulomb
SciTegic.value.DoubleValue
0.565

@<SCITEGIC>MOL_PROPERTY
VdW
SciTegic.value.DoubleValue
0.789

@<SCITEGIC>MOL_PROPERTY
VdW6
SciTegic.value.DoubleValue
-8.847

@<SCITEGIC>MOL_PROPERTY
VdW12
SciTegic.value.DoubleValue
9.636

@<SCITEGIC>MOL_PROPERTY
Bond
SciTegic.value.DoubleValue
0.200

@<SCITEGIC>MOL_PROPERTY
Angle
SciTegic.value.DoubleValue
3.187

@<SCITEGIC>MOL_PROPERTY
Pdih
SciTegic.value.DoubleValue
7.032

@<SCITEGIC>MOL_PROPERTY
Idih
SciTegic.value.DoubleValue
0.001

@<SCITEGIC>MOL_PROPERTY
Tether
SciTegic.value.DoubleValue
0.000

@<TRIPOS>MOLECULE
guest-s21_confgen4.mol2 : confsearch ligand conformer 139
          22          21           1
SMALL
USER_CHARGES
 
@<TRIPOS>ATOM
       1    C1      18.997948   21.962707   21.428616 C.2        1 MOL1         0.6145
       2    O1      18.204572   22.391112   22.243476 O.co2      1 MOL1        -0.6735
       3    O2      19.924789   22.612919   20.986881 O.co2      1 MOL1        -0.6735
       4    C2      18.804290   20.538190   20.916127 C.3        1 MOL1        -0.1985
       5    H1      19.355811   20.425812   19.974824 H          1 MOL1         0.0740
       6    H2      17.740992   20.418802   20.677095 H          1 MOL1         0.0740
       7    C3      19.234090   19.439420   21.922938 C.3        1 MOL1        -0.1882
       8    H3      18.709358   19.592170   22.876145 H          1 MOL1         0.0742
       9    H4      18.912593   18.466511   21.530518 H          1 MOL1         0.0742
      10    C4      20.761771   19.415060   22.161009 C.3        1 MOL1        -0.1880
      11    H5      21.098439   20.420928   22.446887 H          1 MOL1         0.0742
      12    H6      21.274030   19.176756   21.218936 H          1 MOL1         0.0742
      13    C5      21.218568   18.424092   23.260939 C.3        1 MOL1        -0.1880
      14    H7      22.305068   18.538043   23.376697 H          1 MOL1         0.0742
      15    H8      20.784278   18.709658   24.228808 H          1 MOL1         0.0742
      16    C6      20.920371   16.934536   22.957299 C.3        1 MOL1        -0.1856
      17    H9      21.751749   16.325375   23.338130 H          1 MOL1         0.0742
      18    H10     20.890192   16.765237   21.872109 H          1 MOL1         0.0742
      19    C7      19.617591   16.427898   23.615410 C.3        1 MOL1        -0.2871
      20    H11     19.668789   16.525805   24.707601 H          1 MOL1         0.0754
      21    H12     19.456164   15.367831   23.380853 H          1 MOL1         0.0754
      22    H13     18.740518   16.985022   23.267188 H          1 MOL1         0.0754
@<TRIPOS>BOND
    1     1     2    1
    2     1     3    2
    3     1     4    1
    4     4     5    1
    5     4     6    1
    6     4     7    1
    7     7     8    1
    8     7     9    1
    9     7    10    1
   10    10    11    1
   11    10    12    1
   12    10    13    1
   13    13    14    1
   14    13    15    1
   15    13    16    1
   16    16    17    1
   17    16    18    1
   18    16    19    1
   19    19    20    1
   20    19    21    1
   21    19    22    1
@<TRIPOS>SUBSTRUCTURE
       1 MOL1            1 RESIDUE      1      MOL     
@<SCITEGIC>MOL_PROPERTY
VConf Rank
SciTegic.value.IntegerValue
139

@<SCITEGIC>MOL_PROPERTY
Conf_Id
SciTegic.value.IntegerValue
94

@<SCITEGIC>MOL_PROPERTY
Delta U+W
SciTegic.value.DoubleValue
3.471

@<SCITEGIC>MOL_PROPERTY
U+W
SciTegic.value.DoubleValue
-49.688

@<SCITEGIC>MOL_PROPERTY
Grad RMS
SciTegic.value.DoubleValue
0.000000

@<SCITEGIC>MOL_PROPERTY
U
SciTegic.value.DoubleValue
11.773

@<SCITEGIC>MOL_PROPERTY
W
SciTegic.value.DoubleValue
-61.461

@<SCITEGIC>MOL_PROPERTY
W(PB)
SciTegic.value.DoubleValue
-63.710

@<SCITEGIC>MOL_PROPERTY
W(SA)
SciTegic.value.DoubleValue
2.248

@<SCITEGIC>MOL_PROPERTY
Valence
SciTegic.value.DoubleValue
10.419

@<SCITEGIC>MOL_PROPERTY
Coulomb
SciTegic.value.DoubleValue
0.566

@<SCITEGIC>MOL_PROPERTY
VdW
SciTegic.value.DoubleValue
0.789

@<SCITEGIC>MOL_PROPERTY
VdW6
SciTegic.value.DoubleValue
-8.847

@<SCITEGIC>MOL_PROPERTY
VdW12
SciTegic.value.DoubleValue
9.636

@<SCITEGIC>MOL_PROPERTY
Bond
SciTegic.value.DoubleValue
0.200

@<SCITEGIC>MOL_PROPERTY
Angle
SciTegic.value.DoubleValue
3.187

@<SCITEGIC>MOL_PROPERTY
Pdih
SciTegic.value.DoubleValue
7.032

@<SCITEGIC>MOL_PROPERTY
Idih
SciTegic.value.DoubleValue
0.001

@<SCITEGIC>MOL_PROPERTY
Tether
SciTegic.value.DoubleValue
0.000

@<TRIPOS>MOLECULE
guest-s21_confgen4.mol2 : confsearch ligand conformer 140
          22          21           1
SMALL
USER_CHARGES
 
@<TRIPOS>ATOM
       1    C1      18.199593   18.848144   19.473159 C.2        1 MOL1         0.6145
       2    O1      17.929411   19.671553   18.621281 O.co2      1 MOL1        -0.6735
       3    O2      17.523892   17.862718   19.694377 O.co2      1 MOL1        -0.6735
       4    C2      19.444280   19.074374   20.323752 C.3        1 MOL1        -0.1985
       5    H1      20.192321   19.584014   19.704935 H          1 MOL1         0.0740
       6    H2      19.852674   18.091685   20.585612 H          1 MOL1         0.0740
       7    C3      19.154804   19.901613   21.602945 C.3        1 MOL1        -0.1882
       8    H3      18.671485   20.844344   21.311810 H          1 MOL1         0.0742
       9    H4      18.427222   19.368088   22.228884 H          1 MOL1         0.0742
      10    C4      20.425052   20.231534   22.426375 C.3        1 MOL1        -0.1880
      11    H5      20.141081   20.859930   23.280747 H          1 MOL1         0.0742
      12    H6      21.094496   20.849491   21.812763 H          1 MOL1         0.0742
      13    C5      21.218698   19.000429   22.937917 C.3        1 MOL1        -0.1880
      14    H7      21.642679   18.459768   22.081659 H          1 MOL1         0.0742
      15    H8      22.079943   19.356427   23.519353 H          1 MOL1         0.0742
      16    C6      20.407320   18.007670   23.806262 C.3        1 MOL1        -0.1856
      17    H9      21.061732   17.170536   24.085295 H          1 MOL1         0.0742
      18    H10     19.589723   17.570891   23.217396 H          1 MOL1         0.0742
      19    C7      19.840259   18.645330   25.092976 C.3        1 MOL1        -0.2871
      20    H11     20.639819   19.103073   25.689741 H          1 MOL1         0.0754
      21    H12     19.346991   17.885824   25.713123 H          1 MOL1         0.0754
      22    H13     19.097687   19.418932   24.860417 H          1 MOL1         0.0754
@<TRIPOS>BOND
    1     1     2    1
    2     1     3    2
    3     1     4    1
    4     4     5    1
    5     4     6    1
    6     4     7    1
    7     7     8    1
    8     7     9    1
    9     7    10    1
   10    10    11    1
   11    10    12    1
   12    10    13    1
   13    13    14    1
   14    13    15    1
   15    13    16    1
   16    16    17    1
   17    16    18    1
   18    16    19    1
   19    19    20    1
   20    19    21    1
   21    19    22    1
@<TRIPOS>SUBSTRUCTURE
       1 MOL1            1 RESIDUE      1      MOL     
@<SCITEGIC>MOL_PROPERTY
VConf Rank
SciTegic.value.IntegerValue
140

@<SCITEGIC>MOL_PROPERTY
Conf_Id
SciTegic.value.IntegerValue
56

@<SCITEGIC>MOL_PROPERTY
Delta U+W
SciTegic.value.DoubleValue
0.853

@<SCITEGIC>MOL_PROPERTY
U+W
SciTegic.value.DoubleValue
-52.307

@<SCITEGIC>MOL_PROPERTY
Grad RMS
SciTegic.value.DoubleValue
0.000000

@<SCITEGIC>MOL_PROPERTY
U
SciTegic.value.DoubleValue
8.874

@<SCITEGIC>MOL_PROPERTY
W
SciTegic.value.DoubleValue
-61.181

@<SCITEGIC>MOL_PROPERTY
W(PB)
SciTegic.value.DoubleValue
-63.413

@<SCITEGIC>MOL_PROPERTY
W(SA)
SciTegic.value.DoubleValue
2.232

@<SCITEGIC>MOL_PROPERTY
Valence
SciTegic.value.DoubleValue
8.479

@<SCITEGIC>MOL_PROPERTY
Coulomb
SciTegic.value.DoubleValue
-0.357

@<SCITEGIC>MOL_PROPERTY
VdW
SciTegic.value.DoubleValue
0.753

@<SCITEGIC>MOL_PROPERTY
VdW6
SciTegic.value.DoubleValue
-9.081

@<SCITEGIC>MOL_PROPERTY
VdW12
SciTegic.value.DoubleValue
9.833

@<SCITEGIC>MOL_PROPERTY
Bond
SciTegic.value.DoubleValue
0.221

@<SCITEGIC>MOL_PROPERTY
Angle
SciTegic.value.DoubleValue
3.208

@<SCITEGIC>MOL_PROPERTY
Pdih
SciTegic.value.DoubleValue
5.050

@<SCITEGIC>MOL_PROPERTY
Idih
SciTegic.value.DoubleValue
0.000

@<SCITEGIC>MOL_PROPERTY
Tether
SciTegic.value.DoubleValue
0.000

@<TRIPOS>MOLECULE
guest-s21_confgen4.mol2 : confsearch ligand conformer 141
          22          21           1
SMALL
USER_CHARGES
 
@<TRIPOS>ATOM
       1    C1      18.663200   22.156206   24.345909 C.2        1 MOL1         0.6145
       2    O1      18.694681   22.903444   23.387241 O.co2      1 MOL1        -0.6735
       3    O2      18.352323   22.521730   25.462005 O.co2      1 MOL1        -0.6735
       4    C2      19.027056   20.680943   24.170597 C.3        1 MOL1        -0.1985
       5    H1      18.168031   20.089831   24.509171 H          1 MOL1         0.0740
       6    H2      19.855349   20.464819   24.855571 H          1 MOL1         0.0740
       7    C3      19.416413   20.261449   22.728087 C.3        1 MOL1        -0.1882
       8    H3      18.584725   20.486407   22.046048 H          1 MOL1         0.0742
       9    H4      20.273683   20.861594   22.392821 H          1 MOL1         0.0742
      10    C4      19.767645   18.760224   22.641644 C.3        1 MOL1        -0.1880
      11    H5      18.909170   18.162322   22.977298 H          1 MOL1         0.0742
      12    H6      20.599188   18.537734   23.324406 H          1 MOL1         0.0742
      13    C5      20.154730   18.345102   21.205974 C.3        1 MOL1        -0.1880
      14    H7      19.323486   18.567461   20.522808 H          1 MOL1         0.0742
      15    H8      21.013219   18.942739   20.869888 H          1 MOL1         0.0742
      16    C6      20.505784   16.845011   21.118846 C.3        1 MOL1        -0.1856
      17    H9      19.648538   16.243866   21.452356 H          1 MOL1         0.0742
      18    H10     21.338327   16.619144   21.799531 H          1 MOL1         0.0742
      19    C7      20.891819   16.434523   19.683641 C.3        1 MOL1        -0.2871
      20    H11     20.064712   16.620527   18.985998 H          1 MOL1         0.0754
      21    H12     21.138135   15.365639   19.639978 H          1 MOL1         0.0754
      22    H13     21.767193   16.998560   19.335804 H          1 MOL1         0.0754
@<TRIPOS>BOND
    1     1     2    1
    2     1     3    2
    3     1     4    1
    4     4     5    1
    5     4     6    1
    6     4     7    1
    7     7     8    1
    8     7     9    1
    9     7    10    1
   10    10    11    1
   11    10    12    1
   12    10    13    1
   13    13    14    1
   14    13    15    1
   15    13    16    1
   16    16    17    1
   17    16    18    1
   18    16    19    1
   19    19    20    1
   20    19    21    1
   21    19    22    1
@<TRIPOS>SUBSTRUCTURE
       1 MOL1            1 RESIDUE      1      MOL     
@<SCITEGIC>MOL_PROPERTY
VConf Rank
SciTegic.value.IntegerValue
141

@<SCITEGIC>MOL_PROPERTY
Conf_Id
SciTegic.value.IntegerValue
0

@<SCITEGIC>MOL_PROPERTY
Delta U+W
SciTegic.value.DoubleValue
0.000

@<SCITEGIC>MOL_PROPERTY
U+W
SciTegic.value.DoubleValue
-53.159

@<SCITEGIC>MOL_PROPERTY
Grad RMS
SciTegic.value.DoubleValue
0.000000

@<SCITEGIC>MOL_PROPERTY
U
SciTegic.value.DoubleValue
6.763

@<SCITEGIC>MOL_PROPERTY
W
SciTegic.value.DoubleValue
-59.922

@<SCITEGIC>MOL_PROPERTY
W(PB)
SciTegic.value.DoubleValue
-62.256

@<SCITEGIC>MOL_PROPERTY
W(SA)
SciTegic.value.DoubleValue
2.334

@<SCITEGIC>MOL_PROPERTY
Valence
SciTegic.value.DoubleValue
7.600

@<SCITEGIC>MOL_PROPERTY
Coulomb
SciTegic.value.DoubleValue
-2.139

@<SCITEGIC>MOL_PROPERTY
VdW
SciTegic.value.DoubleValue
1.302

@<SCITEGIC>MOL_PROPERTY
VdW6
SciTegic.value.DoubleValue
-6.786

@<SCITEGIC>MOL_PROPERTY
VdW12
SciTegic.value.DoubleValue
8.088

@<SCITEGIC>MOL_PROPERTY
Bond
SciTegic.value.DoubleValue
0.134

@<SCITEGIC>MOL_PROPERTY
Angle
SciTegic.value.DoubleValue
2.720

@<SCITEGIC>MOL_PROPERTY
Pdih
SciTegic.value.DoubleValue
4.746

@<SCITEGIC>MOL_PROPERTY
Idih
SciTegic.value.DoubleValue
0.000

@<SCITEGIC>MOL_PROPERTY
Tether
SciTegic.value.DoubleValue
0.000

@<TRIPOS>MOLECULE
guest-s21_confgen4.mol2 : confsearch ligand conformer 142
          22          21           1
SMALL
USER_CHARGES
 
@<TRIPOS>ATOM
       1    C1      16.962080   16.483580   23.550049 C.2        1 MOL1         0.6145
       2    O1      16.180923   16.995678   24.327210 O.co2      1 MOL1        -0.6735
       3    O2      17.306545   15.319924   23.610717 O.co2      1 MOL1        -0.6735
       4    C2      17.560312   17.355110   22.451520 C.3        1 MOL1        -0.1985
       5    H1      16.811673   18.103358   22.164592 H          1 MOL1         0.0740
       6    H2      17.739063   16.722243   21.573916 H          1 MOL1         0.0740
       7    C3      18.873740   18.051862   22.884525 C.3        1 MOL1        -0.1882
       8    H3      18.680674   18.671024   23.771620 H          1 MOL1         0.0742
       9    H4      19.608037   17.289951   23.180961 H          1 MOL1         0.0742
      10    C4      19.459040   18.927665   21.755688 C.3        1 MOL1        -0.1880
      11    H5      18.722101   19.687396   21.460897 H          1 MOL1         0.0742
      12    H6      19.649664   18.305972   20.870063 H          1 MOL1         0.0742
      13    C5      20.768221   19.620884   22.190184 C.3        1 MOL1        -0.1880
      14    H7      20.578016   20.242675   23.075805 H          1 MOL1         0.0742
      15    H8      21.505429   18.861482   22.485071 H          1 MOL1         0.0742
      16    C6      21.353810   20.496391   21.062513 C.3        1 MOL1        -0.1856
      17    H9      20.619897   21.258639   20.766159 H          1 MOL1         0.0742
      18    H10     21.547300   19.877449   20.175411 H          1 MOL1         0.0742
      19    C7      22.661049   21.186884   21.500333 C.3        1 MOL1        -0.2871
      20    H11     23.424404   20.446206   21.772534 H          1 MOL1         0.0754
      21    H12     22.490019   21.837693   22.367860 H          1 MOL1         0.0754
      22    H13     23.063282   21.804913   20.687104 H          1 MOL1         0.0754
@<TRIPOS>BOND
    1     1     2    1
    2     1     3    2
    3     1     4    1
    4     4     5    1
    5     4     6    1
    6     4     7    1
    7     7     8    1
    8     7     9    1
    9     7    10    1
   10    10    11    1
   11    10    12    1
   12    10    13    1
   13    13    14    1
   14    13    15    1
   15    13    16    1
   16    16    17    1
   17    16    18    1
   18    16    19    1
   19    19    20    1
   20    19    21    1
   21    19    22    1
@<TRIPOS>SUBSTRUCTURE
       1 MOL1            1 RESIDUE      1      MOL     
@<SCITEGIC>MOL_PROPERTY
VConf Rank
SciTegic.value.IntegerValue
142

@<SCITEGIC>MOL_PROPERTY
Conf_Id
SciTegic.value.IntegerValue
10

@<SCITEGIC>MOL_PROPERTY
Delta U+W
SciTegic.value.DoubleValue
-1.291

@<SCITEGIC>MOL_PROPERTY
U+W
SciTegic.value.DoubleValue
-54.451

@<SCITEGIC>MOL_PROPERTY
Grad RMS
SciTegic.value.DoubleValue
0.000000

@<SCITEGIC>MOL_PROPERTY
U
SciTegic.value.DoubleValue
5.779

@<SCITEGIC>MOL_PROPERTY
W
SciTegic.value.DoubleValue
-60.230

@<SCITEGIC>MOL_PROPERTY
W(PB)
SciTegic.value.DoubleValue
-62.557

@<SCITEGIC>MOL_PROPERTY
W(SA)
SciTegic.value.DoubleValue
2.328

@<SCITEGIC>MOL_PROPERTY
Valence
SciTegic.value.DoubleValue
7.101

@<SCITEGIC>MOL_PROPERTY
Coulomb
SciTegic.value.DoubleValue
-2.079

@<SCITEGIC>MOL_PROPERTY
VdW
SciTegic.value.DoubleValue
0.757

@<SCITEGIC>MOL_PROPERTY
VdW6
SciTegic.value.DoubleValue
-6.496

@<SCITEGIC>MOL_PROPERTY
VdW12
SciTegic.value.DoubleValue
7.253

@<SCITEGIC>MOL_PROPERTY
Bond
SciTegic.value.DoubleValue
0.100

@<SCITEGIC>MOL_PROPERTY
Angle
SciTegic.value.DoubleValue
2.262

@<SCITEGIC>MOL_PROPERTY
Pdih
SciTegic.value.DoubleValue
4.738

@<SCITEGIC>MOL_PROPERTY
Idih
SciTegic.value.DoubleValue
0.001

@<SCITEGIC>MOL_PROPERTY
Tether
SciTegic.value.DoubleValue
0.000

@<TRIPOS>MOLECULE
guest-s21_confgen4.mol2 : confsearch ligand conformer 143
          22          21           1
SMALL
USER_CHARGES
 
@<TRIPOS>ATOM
       1    C1      19.469503   18.670783   26.073174 C.2        1 MOL1         0.6145
       2    O1      19.490071   19.754048   26.623235 O.co2      1 MOL1        -0.6735
       3    O2      18.895029   17.698768   26.522200 O.co2      1 MOL1        -0.6735
       4    C2      20.186469   18.528966   24.735244 C.3        1 MOL1        -0.1985
       5    H1      20.566665   17.503128   24.659390 H          1 MOL1         0.0740
       6    H2      21.055930   19.197283   24.742070 H          1 MOL1         0.0740
       7    C3      19.273977   18.851431   23.526308 C.3        1 MOL1        -0.1882
       8    H3      18.401998   18.182906   23.541768 H          1 MOL1         0.0742
       9    H4      18.891605   19.877051   23.623503 H          1 MOL1         0.0742
      10    C4      20.022902   18.700642   22.184400 C.3        1 MOL1        -0.1880
      11    H5      20.402138   17.674023   22.089060 H          1 MOL1         0.0742
      12    H6      20.895350   19.366973   22.182497 H          1 MOL1         0.0742
      13    C5      19.108818   19.027182   20.981037 C.3        1 MOL1        -0.1880
      14    H7      18.207435   18.401616   21.036784 H          1 MOL1         0.0742
      15    H8      18.768539   20.069697   21.046680 H          1 MOL1         0.0742
      16    C6      19.786933   18.789919   19.611667 C.3        1 MOL1        -0.1856
      17    H9      19.039039   18.930146   18.819060 H          1 MOL1         0.0742
      18    H10     20.123072   17.746291   19.539825 H          1 MOL1         0.0742
      19    C7      20.976222   19.738171   19.345927 C.3        1 MOL1        -0.2871
      20    H11     21.364865   19.590844   18.329968 H          1 MOL1         0.0754
      21    H12     21.800244   19.553590   20.046370 H          1 MOL1         0.0754
      22    H13     20.670617   20.788187   19.441887 H          1 MOL1         0.0754
@<TRIPOS>BOND
    1     1     2    1
    2     1     3    2
    3     1     4    1
    4     4     5    1
    5     4     6    1
    6     4     7    1
    7     7     8    1
    8     7     9    1
    9     7    10    1
   10    10    11    1
   11    10    12    1
   12    10    13    1
   13    13    14    1
   14    13    15    1
   15    13    16    1
   16    16    17    1
   17    16    18    1
   18    16    19    1
   19    19    20    1
   20    19    21    1
   21    19    22    1
@<TRIPOS>SUBSTRUCTURE
       1 MOL1            1 RESIDUE      1      MOL     
@<SCITEGIC>MOL_PROPERTY
VConf Rank
SciTegic.value.IntegerValue
143

@<SCITEGIC>MOL_PROPERTY
Conf_Id
SciTegic.value.IntegerValue
37

@<SCITEGIC>MOL_PROPERTY
Delta U+W
SciTegic.value.DoubleValue
-0.345

@<SCITEGIC>MOL_PROPERTY
U+W
SciTegic.value.DoubleValue
-53.504

@<SCITEGIC>MOL_PROPERTY
Grad RMS
SciTegic.value.DoubleValue
0.000000

@<SCITEGIC>MOL_PROPERTY
U
SciTegic.value.DoubleValue
6.751

@<SCITEGIC>MOL_PROPERTY
W
SciTegic.value.DoubleValue
-60.255

@<SCITEGIC>MOL_PROPERTY
W(PB)
SciTegic.value.DoubleValue
-62.592

@<SCITEGIC>MOL_PROPERTY
W(SA)
SciTegic.value.DoubleValue
2.336

@<SCITEGIC>MOL_PROPERTY
Valence
SciTegic.value.DoubleValue
7.602

@<SCITEGIC>MOL_PROPERTY
Coulomb
SciTegic.value.DoubleValue
-1.744

@<SCITEGIC>MOL_PROPERTY
VdW
SciTegic.value.DoubleValue
0.894

@<SCITEGIC>MOL_PROPERTY
VdW6
SciTegic.value.DoubleValue
-7.110

@<SCITEGIC>MOL_PROPERTY
VdW12
SciTegic.value.DoubleValue
8.004

@<SCITEGIC>MOL_PROPERTY
Bond
SciTegic.value.DoubleValue
0.131

@<SCITEGIC>MOL_PROPERTY
Angle
SciTegic.value.DoubleValue
2.489

@<SCITEGIC>MOL_PROPERTY
Pdih
SciTegic.value.DoubleValue
4.982

@<SCITEGIC>MOL_PROPERTY
Idih
SciTegic.value.DoubleValue
0.001

@<SCITEGIC>MOL_PROPERTY
Tether
SciTegic.value.DoubleValue
0.000

@<TRIPOS>MOLECULE
guest-s21_confgen4.mol2 : confsearch ligand conformer 144
          22          21           1
SMALL
USER_CHARGES
 
@<TRIPOS>ATOM
       1    C1      17.378399   18.230874   19.262522 C.2        1 MOL1         0.6145
       2    O1      17.213344   19.186009   18.529770 O.co2      1 MOL1        -0.6735
       3    O2      16.558758   17.346022   19.409776 O.co2      1 MOL1        -0.6735
       4    C2      18.676609   18.149290   20.057636 C.3        1 MOL1        -0.1985
       5    H1      19.472616   18.607311   19.458265 H          1 MOL1         0.0740
       6    H2      18.933523   17.090548   20.182960 H          1 MOL1         0.0740
       7    C3      18.581051   18.843106   21.438810 C.3        1 MOL1        -0.1882
       8    H3      18.311144   19.898820   21.296801 H          1 MOL1         0.0742
       9    H4      17.770979   18.382078   22.020831 H          1 MOL1         0.0742
      10    C4      19.907305   18.746462   22.223705 C.3        1 MOL1        -0.1880
      11    H5      20.710399   19.203053   21.630636 H          1 MOL1         0.0742
      12    H6      20.173412   17.690160   22.366073 H          1 MOL1         0.0742
      13    C5      19.807913   19.443850   23.599945 C.3        1 MOL1        -0.1880
      14    H7      19.592022   20.511794   23.459149 H          1 MOL1         0.0742
      15    H8      18.956010   19.024435   24.152474 H          1 MOL1         0.0742
      16    C6      21.080298   19.283139   24.463957 C.3        1 MOL1        -0.1856
      17    H9      21.295807   18.215974   24.612368 H          1 MOL1         0.0742
      18    H10     20.884485   19.701583   25.460851 H          1 MOL1         0.0742
      19    C7      22.318577   19.984759   23.865120 C.3        1 MOL1        -0.2871
      20    H11     22.116628   21.047782   23.679824 H          1 MOL1         0.0754
      21    H12     22.622892   19.521535   22.918273 H          1 MOL1         0.0754
      22    H13     23.169056   19.917767   24.555856 H          1 MOL1         0.0754
@<TRIPOS>BOND
    1     1     2    1
    2     1     3    2
    3     1     4    1
    4     4     5    1
    5     4     6    1
    6     4     7    1
    7     7     8    1
    8     7     9    1
    9     7    10    1
   10    10    11    1
   11    10    12    1
   12    10    13    1
   13    13    14    1
   14    13    15    1
   15    13    16    1
   16    16    17    1
   17    16    18    1
   18    16    19    1
   19    19    20    1
   20    19    21    1
   21    19    22    1
@<TRIPOS>SUBSTRUCTURE
       1 MOL1            1 RESIDUE      1      MOL     
@<SCITEGIC>MOL_PROPERTY
VConf Rank
SciTegic.value.IntegerValue
144

@<SCITEGIC>MOL_PROPERTY
Conf_Id
SciTegic.value.IntegerValue
38

@<SCITEGIC>MOL_PROPERTY
Delta U+W
SciTegic.value.DoubleValue
-0.439

@<SCITEGIC>MOL_PROPERTY
U+W
SciTegic.value.DoubleValue
-53.598

@<SCITEGIC>MOL_PROPERTY
Grad RMS
SciTegic.value.DoubleValue
0.000000

@<SCITEGIC>MOL_PROPERTY
U
SciTegic.value.DoubleValue
6.751

@<SCITEGIC>MOL_PROPERTY
W
SciTegic.value.DoubleValue
-60.350

@<SCITEGIC>MOL_PROPERTY
W(PB)
SciTegic.value.DoubleValue
-62.659

@<SCITEGIC>MOL_PROPERTY
W(SA)
SciTegic.value.DoubleValue
2.309

@<SCITEGIC>MOL_PROPERTY
Valence
SciTegic.value.DoubleValue
7.602

@<SCITEGIC>MOL_PROPERTY
Coulomb
SciTegic.value.DoubleValue
-1.744

@<SCITEGIC>MOL_PROPERTY
VdW
SciTegic.value.DoubleValue
0.893

@<SCITEGIC>MOL_PROPERTY
VdW6
SciTegic.value.DoubleValue
-7.110

@<SCITEGIC>MOL_PROPERTY
VdW12
SciTegic.value.DoubleValue
8.004

@<SCITEGIC>MOL_PROPERTY
Bond
SciTegic.value.DoubleValue
0.131

@<SCITEGIC>MOL_PROPERTY
Angle
SciTegic.value.DoubleValue
2.489

@<SCITEGIC>MOL_PROPERTY
Pdih
SciTegic.value.DoubleValue
4.981

@<SCITEGIC>MOL_PROPERTY
Idih
SciTegic.value.DoubleValue
0.001

@<SCITEGIC>MOL_PROPERTY
Tether
SciTegic.value.DoubleValue
0.000

@<TRIPOS>MOLECULE
guest-s21_confgen4.mol2 : confsearch ligand conformer 145
          22          21           1
SMALL
USER_CHARGES
 
@<TRIPOS>ATOM
       1    C1      18.168607   18.088510   18.993699 C.2        1 MOL1         0.6145
       2    O1      17.676698   18.900768   18.235528 O.co2      1 MOL1        -0.6735
       3    O2      17.871304   16.910348   19.002511 O.co2      1 MOL1        -0.6735
       4    C2      19.198949   18.579056   20.004664 C.3        1 MOL1        -0.1985
       5    H1      19.747427   19.414302   19.553052 H          1 MOL1         0.0740
       6    H2      19.917219   17.767862   20.167488 H          1 MOL1         0.0740
       7    C3      18.558787   19.022297   21.346059 C.3        1 MOL1        -0.1882
       8    H3      17.776861   19.764456   21.133364 H          1 MOL1         0.0742
       9    H4      18.053719   18.165584   21.813224 H          1 MOL1         0.0742
      10    C4      19.569014   19.640770   22.341876 C.3        1 MOL1        -0.1880
      11    H5      19.003654   20.048320   23.189579 H          1 MOL1         0.0742
      12    H6      20.078085   20.491523   21.868871 H          1 MOL1         0.0742
      13    C5      20.618002   18.627798   22.862964 C.3        1 MOL1        -0.1880
      14    H7      20.108731   17.776246   23.334350 H          1 MOL1         0.0742
      15    H8      21.186171   18.221706   22.016587 H          1 MOL1         0.0742
      16    C6      21.624748   19.245342   23.861572 C.3        1 MOL1        -0.1856
      17    H9      22.128115   20.104836   23.397692 H          1 MOL1         0.0742
      18    H10     22.408278   18.504809   24.073557 H          1 MOL1         0.0742
      19    C7      20.979407   19.678112   25.196075 C.3        1 MOL1        -0.2871
      20    H11     20.273856   20.505599   25.051549 H          1 MOL1         0.0754
      21    H12     21.748741   20.018177   25.901340 H          1 MOL1         0.0754
      22    H13     20.440585   18.842417   25.661274 H          1 MOL1         0.0754
@<TRIPOS>BOND
    1     1     2    1
    2     1     3    2
    3     1     4    1
    4     4     5    1
    5     4     6    1
    6     4     7    1
    7     7     8    1
    8     7     9    1
    9     7    10    1
   10    10    11    1
   11    10    12    1
   12    10    13    1
   13    13    14    1
   14    13    15    1
   15    13    16    1
   16    16    17    1
   17    16    18    1
   18    16    19    1
   19    19    20    1
   20    19    21    1
   21    19    22    1
@<TRIPOS>SUBSTRUCTURE
       1 MOL1            1 RESIDUE      1      MOL     
@<SCITEGIC>MOL_PROPERTY
VConf Rank
SciTegic.value.IntegerValue
145

@<SCITEGIC>MOL_PROPERTY
Conf_Id
SciTegic.value.IntegerValue
60

@<SCITEGIC>MOL_PROPERTY
Delta U+W
SciTegic.value.DoubleValue
0.386

@<SCITEGIC>MOL_PROPERTY
U+W
SciTegic.value.DoubleValue
-52.773

@<SCITEGIC>MOL_PROPERTY
Grad RMS
SciTegic.value.DoubleValue
0.000000

@<SCITEGIC>MOL_PROPERTY
U
SciTegic.value.DoubleValue
7.689

@<SCITEGIC>MOL_PROPERTY
W
SciTegic.value.DoubleValue
-60.463

@<SCITEGIC>MOL_PROPERTY
W(PB)
SciTegic.value.DoubleValue
-62.772

@<SCITEGIC>MOL_PROPERTY
W(SA)
SciTegic.value.DoubleValue
2.309

@<SCITEGIC>MOL_PROPERTY
Valence
SciTegic.value.DoubleValue
8.197

@<SCITEGIC>MOL_PROPERTY
Coulomb
SciTegic.value.DoubleValue
-1.561

@<SCITEGIC>MOL_PROPERTY
VdW
SciTegic.value.DoubleValue
1.053

@<SCITEGIC>MOL_PROPERTY
VdW6
SciTegic.value.DoubleValue
-7.737

@<SCITEGIC>MOL_PROPERTY
VdW12
SciTegic.value.DoubleValue
8.790

@<SCITEGIC>MOL_PROPERTY
Bond
SciTegic.value.DoubleValue
0.181

@<SCITEGIC>MOL_PROPERTY
Angle
SciTegic.value.DoubleValue
2.780

@<SCITEGIC>MOL_PROPERTY
Pdih
SciTegic.value.DoubleValue
5.235

@<SCITEGIC>MOL_PROPERTY
Idih
SciTegic.value.DoubleValue
0.001

@<SCITEGIC>MOL_PROPERTY
Tether
SciTegic.value.DoubleValue
0.000

@<TRIPOS>MOLECULE
guest-s21_confgen4.mol2 : confsearch ligand conformer 146
          22          21           1
SMALL
USER_CHARGES
 
@<TRIPOS>ATOM
       1    C1      20.212212   19.117152   18.483185 C.2        1 MOL1         0.6145
       2    O1      19.208318   18.691469   17.946972 O.co2      1 MOL1        -0.6735
       3    O2      21.280159   19.234039   17.915394 O.co2      1 MOL1        -0.6735
       4    C2      20.133390   19.504716   19.955554 C.3        1 MOL1        -0.1985
       5    H1      19.126949   19.895059   20.143099 H          1 MOL1         0.0740
       6    H2      20.839064   20.325868   20.129184 H          1 MOL1         0.0740
       7    C3      20.447705   18.319343   20.905138 C.3        1 MOL1        -0.1882
       8    H3      19.705452   17.522833   20.757055 H          1 MOL1         0.0742
       9    H4      21.420314   17.892532   20.623517 H          1 MOL1         0.0742
      10    C4      20.497089   18.717188   22.399795 C.3        1 MOL1        -0.1880
      11    H5      21.234018   19.519128   22.542957 H          1 MOL1         0.0742
      12    H6      20.862675   17.853091   22.969014 H          1 MOL1         0.0742
      13    C5      19.125029   19.161240   22.963963 C.3        1 MOL1        -0.1880
      14    H7      18.759721   20.027248   22.397697 H          1 MOL1         0.0742
      15    H8      18.387734   18.359934   22.819024 H          1 MOL1         0.0742
      16    C6      19.173987   19.554428   24.458995 C.3        1 MOL1        -0.1856
      17    H9      18.202641   19.983417   24.741311 H          1 MOL1         0.0742
      18    H10     19.918813   20.347971   24.610049 H          1 MOL1         0.0742
      19    C7      19.481287   18.366725   25.396856 C.3        1 MOL1        -0.2871
      20    H11     18.769012   17.546515   25.238600 H          1 MOL1         0.0754
      21    H12     19.409043   18.678764   26.446775 H          1 MOL1         0.0754
      22    H13     20.494843   17.979221   25.235703 H          1 MOL1         0.0754
@<TRIPOS>BOND
    1     1     2    1
    2     1     3    2
    3     1     4    1
    4     4     5    1
    5     4     6    1
    6     4     7    1
    7     7     8    1
    8     7     9    1
    9     7    10    1
   10    10    11    1
   11    10    12    1
   12    10    13    1
   13    13    14    1
   14    13    15    1
   15    13    16    1
   16    16    17    1
   17    16    18    1
   18    16    19    1
   19    19    20    1
   20    19    21    1
   21    19    22    1
@<TRIPOS>SUBSTRUCTURE
       1 MOL1            1 RESIDUE      1      MOL     
@<SCITEGIC>MOL_PROPERTY
VConf Rank
SciTegic.value.IntegerValue
146

@<SCITEGIC>MOL_PROPERTY
Conf_Id
SciTegic.value.IntegerValue
28

@<SCITEGIC>MOL_PROPERTY
Delta U+W
SciTegic.value.DoubleValue
0.351

@<SCITEGIC>MOL_PROPERTY
U+W
SciTegic.value.DoubleValue
-52.808

@<SCITEGIC>MOL_PROPERTY
Grad RMS
SciTegic.value.DoubleValue
0.000000

@<SCITEGIC>MOL_PROPERTY
U
SciTegic.value.DoubleValue
7.689

@<SCITEGIC>MOL_PROPERTY
W
SciTegic.value.DoubleValue
-60.498

@<SCITEGIC>MOL_PROPERTY
W(PB)
SciTegic.value.DoubleValue
-62.768

@<SCITEGIC>MOL_PROPERTY
W(SA)
SciTegic.value.DoubleValue
2.270

@<SCITEGIC>MOL_PROPERTY
Valence
SciTegic.value.DoubleValue
8.197

@<SCITEGIC>MOL_PROPERTY
Coulomb
SciTegic.value.DoubleValue
-1.561

@<SCITEGIC>MOL_PROPERTY
VdW
SciTegic.value.DoubleValue
1.053

@<SCITEGIC>MOL_PROPERTY
VdW6
SciTegic.value.DoubleValue
-7.737

@<SCITEGIC>MOL_PROPERTY
VdW12
SciTegic.value.DoubleValue
8.791

@<SCITEGIC>MOL_PROPERTY
Bond
SciTegic.value.DoubleValue
0.181

@<SCITEGIC>MOL_PROPERTY
Angle
SciTegic.value.DoubleValue
2.780

@<SCITEGIC>MOL_PROPERTY
Pdih
SciTegic.value.DoubleValue
5.235

@<SCITEGIC>MOL_PROPERTY
Idih
SciTegic.value.DoubleValue
0.001

@<SCITEGIC>MOL_PROPERTY
Tether
SciTegic.value.DoubleValue
0.000

@<TRIPOS>MOLECULE
guest-s21_confgen4.mol2 : confsearch ligand conformer 147
          22          21           1
SMALL
USER_CHARGES
 
@<TRIPOS>ATOM
       1    C1      23.103313   18.767399   24.204395 C.2        1 MOL1         0.6145
       2    O1      23.278147   19.640347   25.031358 O.co2      1 MOL1        -0.6735
       3    O2      23.371600   17.597510   24.393702 O.co2      1 MOL1        -0.6735
       4    C2      22.495161   19.158566   22.862210 C.3        1 MOL1        -0.1985
       5    H1      22.904712   18.490653   22.094871 H          1 MOL1         0.0740
       6    H2      22.829598   20.174495   22.620016 H          1 MOL1         0.0740
       7    C3      20.948069   19.089403   22.859731 C.3        1 MOL1        -0.1882
       8    H3      20.638384   18.069781   23.124185 H          1 MOL1         0.0742
       9    H4      20.554002   19.756448   23.638876 H          1 MOL1         0.0742
      10    C4      20.358719   19.486091   21.486281 C.3        1 MOL1        -0.1880
      11    H5      20.711133   18.786894   20.715621 H          1 MOL1         0.0742
      12    H6      20.742271   20.476704   21.206036 H          1 MOL1         0.0742
      13    C5      18.812534   19.537395   21.470710 C.3        1 MOL1        -0.1880
      14    H7      18.459822   20.239547   22.238504 H          1 MOL1         0.0742
      15    H8      18.487672   19.945707   20.503926 H          1 MOL1         0.0742
      16    C6      18.147722   18.158251   21.681138 C.3        1 MOL1        -0.1856
      17    H9      18.396480   17.765939   22.675909 H          1 MOL1         0.0742
      18    H10     18.539822   17.441740   20.946241 H          1 MOL1         0.0742
      19    C7      16.614098   18.243396   21.545267 C.3        1 MOL1        -0.2871
      20    H11     16.326719   18.596563   20.546246 H          1 MOL1         0.0754
      21    H12     16.192127   18.933496   22.287619 H          1 MOL1         0.0754
      22    H13     16.156791   17.257567   21.700447 H          1 MOL1         0.0754
@<TRIPOS>BOND
    1     1     2    1
    2     1     3    2
    3     1     4    1
    4     4     5    1
    5     4     6    1
    6     4     7    1
    7     7     8    1
    8     7     9    1
    9     7    10    1
   10    10    11    1
   11    10    12    1
   12    10    13    1
   13    13    14    1
   14    13    15    1
   15    13    16    1
   16    16    17    1
   17    16    18    1
   18    16    19    1
   19    19    20    1
   20    19    21    1
   21    19    22    1
@<TRIPOS>SUBSTRUCTURE
       1 MOL1            1 RESIDUE      1      MOL     
@<SCITEGIC>MOL_PROPERTY
VConf Rank
SciTegic.value.IntegerValue
147

@<SCITEGIC>MOL_PROPERTY
Conf_Id
SciTegic.value.IntegerValue
50

@<SCITEGIC>MOL_PROPERTY
Delta U+W
SciTegic.value.DoubleValue
-0.486

@<SCITEGIC>MOL_PROPERTY
U+W
SciTegic.value.DoubleValue
-53.646

@<SCITEGIC>MOL_PROPERTY
Grad RMS
SciTegic.value.DoubleValue
0.000000

@<SCITEGIC>MOL_PROPERTY
U
SciTegic.value.DoubleValue
7.026

@<SCITEGIC>MOL_PROPERTY
W
SciTegic.value.DoubleValue
-60.672

@<SCITEGIC>MOL_PROPERTY
W(PB)
SciTegic.value.DoubleValue
-62.964

@<SCITEGIC>MOL_PROPERTY
W(SA)
SciTegic.value.DoubleValue
2.292

@<SCITEGIC>MOL_PROPERTY
Valence
SciTegic.value.DoubleValue
7.637

@<SCITEGIC>MOL_PROPERTY
Coulomb
SciTegic.value.DoubleValue
-1.488

@<SCITEGIC>MOL_PROPERTY
VdW
SciTegic.value.DoubleValue
0.877

@<SCITEGIC>MOL_PROPERTY
VdW6
SciTegic.value.DoubleValue
-7.165

@<SCITEGIC>MOL_PROPERTY
VdW12
SciTegic.value.DoubleValue
8.043

@<SCITEGIC>MOL_PROPERTY
Bond
SciTegic.value.DoubleValue
0.134

@<SCITEGIC>MOL_PROPERTY
Angle
SciTegic.value.DoubleValue
2.513

@<SCITEGIC>MOL_PROPERTY
Pdih
SciTegic.value.DoubleValue
4.990

@<SCITEGIC>MOL_PROPERTY
Idih
SciTegic.value.DoubleValue
0.001

@<SCITEGIC>MOL_PROPERTY
Tether
SciTegic.value.DoubleValue
0.000

@<TRIPOS>MOLECULE
guest-s21_confgen4.mol2 : confsearch ligand conformer 148
          22          21           1
SMALL
USER_CHARGES
 
@<TRIPOS>ATOM
       1    C1      20.659436   19.544820   18.676692 C.2        1 MOL1         0.6145
       2    O1      19.949806   20.290999   18.031624 O.co2      1 MOL1        -0.6735
       3    O2      21.091884   18.492098   18.250992 O.co2      1 MOL1        -0.6735
       4    C2      21.009834   19.941670   20.106398 C.3        1 MOL1        -0.1985
       5    H1      21.069966   21.035748   20.151020 H          1 MOL1         0.0740
       6    H2      22.009736   19.552337   20.332816 H          1 MOL1         0.0740
       7    C3      19.985819   19.419049   21.143972 C.3        1 MOL1        -0.1882
       8    H3      18.988846   19.810196   20.898304 H          1 MOL1         0.0742
       9    H4      19.929019   18.325348   21.066134 H          1 MOL1         0.0742
      10    C4      20.367783   19.831754   22.584405 C.3        1 MOL1        -0.1880
      11    H5      20.494282   20.922437   22.621449 H          1 MOL1         0.0742
      12    H6      21.341320   19.396761   22.848969 H          1 MOL1         0.0742
      13    C5      19.314372   19.424883   23.641923 C.3        1 MOL1        -0.1880
      14    H7      19.602612   19.863778   24.606918 H          1 MOL1         0.0742
      15    H8      18.341553   19.862938   23.379884 H          1 MOL1         0.0742
      16    C6      19.168672   17.895613   23.810430 C.3        1 MOL1        -0.1856
      17    H9      20.151032   17.450571   24.020463 H          1 MOL1         0.0742
      18    H10     18.805181   17.444923   22.877633 H          1 MOL1         0.0742
      19    C7      18.192539   17.543057   24.950862 C.3        1 MOL1        -0.2871
      20    H11     17.193510   17.953192   24.753088 H          1 MOL1         0.0754
      21    H12     18.545280   17.946107   25.909236 H          1 MOL1         0.0754
      22    H13     18.097385   16.454477   25.055783 H          1 MOL1         0.0754
@<TRIPOS>BOND
    1     1     2    1
    2     1     3    2
    3     1     4    1
    4     4     5    1
    5     4     6    1
    6     4     7    1
    7     7     8    1
    8     7     9    1
    9     7    10    1
   10    10    11    1
   11    10    12    1
   12    10    13    1
   13    13    14    1
   14    13    15    1
   15    13    16    1
   16    16    17    1
   17    16    18    1
   18    16    19    1
   19    19    20    1
   20    19    21    1
   21    19    22    1
@<TRIPOS>SUBSTRUCTURE
       1 MOL1            1 RESIDUE      1      MOL     
@<SCITEGIC>MOL_PROPERTY
VConf Rank
SciTegic.value.IntegerValue
148

@<SCITEGIC>MOL_PROPERTY
Conf_Id
SciTegic.value.IntegerValue
51

@<SCITEGIC>MOL_PROPERTY
Delta U+W
SciTegic.value.DoubleValue
-0.517

@<SCITEGIC>MOL_PROPERTY
U+W
SciTegic.value.DoubleValue
-53.677

@<SCITEGIC>MOL_PROPERTY
Grad RMS
SciTegic.value.DoubleValue
0.000000

@<SCITEGIC>MOL_PROPERTY
U
SciTegic.value.DoubleValue
7.026

@<SCITEGIC>MOL_PROPERTY
W
SciTegic.value.DoubleValue
-60.703

@<SCITEGIC>MOL_PROPERTY
W(PB)
SciTegic.value.DoubleValue
-63.007

@<SCITEGIC>MOL_PROPERTY
W(SA)
SciTegic.value.DoubleValue
2.304

@<SCITEGIC>MOL_PROPERTY
Valence
SciTegic.value.DoubleValue
7.638

@<SCITEGIC>MOL_PROPERTY
Coulomb
SciTegic.value.DoubleValue
-1.488

@<SCITEGIC>MOL_PROPERTY
VdW
SciTegic.value.DoubleValue
0.877

@<SCITEGIC>MOL_PROPERTY
VdW6
SciTegic.value.DoubleValue
-7.165

@<SCITEGIC>MOL_PROPERTY
VdW12
SciTegic.value.DoubleValue
8.042

@<SCITEGIC>MOL_PROPERTY
Bond
SciTegic.value.DoubleValue
0.134

@<SCITEGIC>MOL_PROPERTY
Angle
SciTegic.value.DoubleValue
2.513

@<SCITEGIC>MOL_PROPERTY
Pdih
SciTegic.value.DoubleValue
4.990

@<SCITEGIC>MOL_PROPERTY
Idih
SciTegic.value.DoubleValue
0.001

@<SCITEGIC>MOL_PROPERTY
Tether
SciTegic.value.DoubleValue
0.000

@<TRIPOS>MOLECULE
guest-s21_confgen4.mol2 : confsearch ligand conformer 149
          22          21           1
SMALL
USER_CHARGES
 
@<TRIPOS>ATOM
       1    C1      23.160523   20.192332   21.979810 C.2        1 MOL1         0.6145
       2    O1      23.903433   19.474736   21.339466 O.co2      1 MOL1        -0.6735
       3    O2      22.848207   21.315075   21.635283 O.co2      1 MOL1        -0.6735
       4    C2      22.605689   19.659338   23.297843 C.3        1 MOL1        -0.1985
       5    H1      22.258277   20.507554   23.900123 H          1 MOL1         0.0740
       6    H2      23.439583   19.202788   23.843943 H          1 MOL1         0.0740
       7    C3      21.466744   18.620503   23.128678 C.3        1 MOL1        -0.1882
       8    H3      21.820821   17.791328   22.500385 H          1 MOL1         0.0742
       9    H4      21.226111   18.192289   24.111161 H          1 MOL1         0.0742
      10    C4      20.189001   19.234427   22.513815 C.3        1 MOL1        -0.1880
      11    H5      20.418007   19.649969   21.522710 H          1 MOL1         0.0742
      12    H6      19.846681   20.070975   23.138331 H          1 MOL1         0.0742
      13    C5      19.058778   18.190816   22.383731 C.3        1 MOL1        -0.1880
      14    H7      19.401850   17.354631   21.759068 H          1 MOL1         0.0742
      15    H8      18.825950   17.775856   23.374013 H          1 MOL1         0.0742
      16    C6      17.782674   18.802998   21.769045 C.3        1 MOL1        -0.1856
      17    H9      18.011369   19.217579   20.777419 H          1 MOL1         0.0742
      18    H10     17.435531   19.638846   22.392192 H          1 MOL1         0.0742
      19    C7      16.656497   17.757792   21.640107 C.3        1 MOL1        -0.2871
      20    H11     16.965829   16.924646   20.995450 H          1 MOL1         0.0754
      21    H12     15.757424   18.209926   21.201555 H          1 MOL1         0.0754
      22    H13     16.385653   17.349022   22.622424 H          1 MOL1         0.0754
@<TRIPOS>BOND
    1     1     2    1
    2     1     3    2
    3     1     4    1
    4     4     5    1
    5     4     6    1
    6     4     7    1
    7     7     8    1
    8     7     9    1
    9     7    10    1
   10    10    11    1
   11    10    12    1
   12    10    13    1
   13    13    14    1
   14    13    15    1
   15    13    16    1
   16    16    17    1
   17    16    18    1
   18    16    19    1
   19    19    20    1
   20    19    21    1
   21    19    22    1
@<TRIPOS>SUBSTRUCTURE
       1 MOL1            1 RESIDUE      1      MOL     
@<SCITEGIC>MOL_PROPERTY
VConf Rank
SciTegic.value.IntegerValue
149

@<SCITEGIC>MOL_PROPERTY
Conf_Id
SciTegic.value.IntegerValue
43

@<SCITEGIC>MOL_PROPERTY
Delta U+W
SciTegic.value.DoubleValue
-0.129

@<SCITEGIC>MOL_PROPERTY
U+W
SciTegic.value.DoubleValue
-53.289

@<SCITEGIC>MOL_PROPERTY
Grad RMS
SciTegic.value.DoubleValue
0.000000

@<SCITEGIC>MOL_PROPERTY
U
SciTegic.value.DoubleValue
7.937

@<SCITEGIC>MOL_PROPERTY
W
SciTegic.value.DoubleValue
-61.225

@<SCITEGIC>MOL_PROPERTY
W(PB)
SciTegic.value.DoubleValue
-63.523

@<SCITEGIC>MOL_PROPERTY
W(SA)
SciTegic.value.DoubleValue
2.297

@<SCITEGIC>MOL_PROPERTY
Valence
SciTegic.value.DoubleValue
7.358

@<SCITEGIC>MOL_PROPERTY
Coulomb
SciTegic.value.DoubleValue
-0.022

@<SCITEGIC>MOL_PROPERTY
VdW
SciTegic.value.DoubleValue
0.601

@<SCITEGIC>MOL_PROPERTY
VdW6
SciTegic.value.DoubleValue
-7.363

@<SCITEGIC>MOL_PROPERTY
VdW12
SciTegic.value.DoubleValue
7.964

@<SCITEGIC>MOL_PROPERTY
Bond
SciTegic.value.DoubleValue
0.121

@<SCITEGIC>MOL_PROPERTY
Angle
SciTegic.value.DoubleValue
2.425

@<SCITEGIC>MOL_PROPERTY
Pdih
SciTegic.value.DoubleValue
4.811

@<SCITEGIC>MOL_PROPERTY
Idih
SciTegic.value.DoubleValue
0.000

@<SCITEGIC>MOL_PROPERTY
Tether
SciTegic.value.DoubleValue
0.000

@<TRIPOS>MOLECULE
guest-s21_confgen4.mol2 : confsearch ligand conformer 150
          22          21           1
SMALL
USER_CHARGES
 
@<TRIPOS>ATOM
       1    C1      20.630352   16.456198   24.422554 C.2        1 MOL1         0.6145
       2    O1      21.823678   16.227684   24.396951 O.co2      1 MOL1        -0.6735
       3    O2      19.784338   15.651659   24.085257 O.co2      1 MOL1        -0.6735
       4    C2      20.170574   17.822529   24.923428 C.3        1 MOL1        -0.1985
       5    H1      20.732908   18.042559   25.838527 H          1 MOL1         0.0740
       6    H2      19.113902   17.753429   25.209040 H          1 MOL1         0.0740
       7    C3      20.375048   18.970653   23.901176 C.3        1 MOL1        -0.1882
       8    H3      20.149285   19.927850   24.390408 H          1 MOL1         0.0742
       9    H4      21.432254   19.009080   23.603703 H          1 MOL1         0.0742
      10    C4      19.484068   18.816387   22.648201 C.3        1 MOL1        -0.1880
      11    H5      18.429472   18.765276   22.951895 H          1 MOL1         0.0742
      12    H6      19.716261   17.868417   22.143378 H          1 MOL1         0.0742
      13    C5      19.680653   19.985605   21.659393 C.3        1 MOL1        -0.1880
      14    H7      19.446298   20.934536   22.161057 H          1 MOL1         0.0742
      15    H8      20.735455   20.036020   21.356144 H          1 MOL1         0.0742
      16    C6      18.791757   19.831840   20.407487 C.3        1 MOL1        -0.1856
      17    H9      17.735605   19.782722   20.706807 H          1 MOL1         0.0742
      18    H10     19.024693   18.884377   19.901959 H          1 MOL1         0.0742
      19    C7      18.991223   21.000864   19.422116 C.3        1 MOL1        -0.2871
      20    H11     18.734861   21.959180   19.892546 H          1 MOL1         0.0754
      21    H12     18.352057   20.875355   18.538488 H          1 MOL1         0.0754
      22    H13     20.033646   21.054017   19.081629 H          1 MOL1         0.0754
@<TRIPOS>BOND
    1     1     2    1
    2     1     3    2
    3     1     4    1
    4     4     5    1
    5     4     6    1
    6     4     7    1
    7     7     8    1
    8     7     9    1
    9     7    10    1
   10    10    11    1
   11    10    12    1
   12    10    13    1
   13    13    14    1
   14    13    15    1
   15    13    16    1
   16    16    17    1
   17    16    18    1
   18    16    19    1
   19    19    20    1
   20    19    21    1
   21    19    22    1
@<TRIPOS>SUBSTRUCTURE
       1 MOL1            1 RESIDUE      1      MOL     
@<SCITEGIC>MOL_PROPERTY
VConf Rank
SciTegic.value.IntegerValue
150

@<SCITEGIC>MOL_PROPERTY
Conf_Id
SciTegic.value.IntegerValue
44

@<SCITEGIC>MOL_PROPERTY
Delta U+W
SciTegic.value.DoubleValue
-0.155

@<SCITEGIC>MOL_PROPERTY
U+W
SciTegic.value.DoubleValue
-53.314

@<SCITEGIC>MOL_PROPERTY
Grad RMS
SciTegic.value.DoubleValue
0.000000

@<SCITEGIC>MOL_PROPERTY
U
SciTegic.value.DoubleValue
7.937

@<SCITEGIC>MOL_PROPERTY
W
SciTegic.value.DoubleValue
-61.252

@<SCITEGIC>MOL_PROPERTY
W(PB)
SciTegic.value.DoubleValue
-63.556

@<SCITEGIC>MOL_PROPERTY
W(SA)
SciTegic.value.DoubleValue
2.304

@<SCITEGIC>MOL_PROPERTY
Valence
SciTegic.value.DoubleValue
7.358

@<SCITEGIC>MOL_PROPERTY
Coulomb
SciTegic.value.DoubleValue
-0.021

@<SCITEGIC>MOL_PROPERTY
VdW
SciTegic.value.DoubleValue
0.600

@<SCITEGIC>MOL_PROPERTY
VdW6
SciTegic.value.DoubleValue
-7.363

@<SCITEGIC>MOL_PROPERTY
VdW12
SciTegic.value.DoubleValue
7.964

@<SCITEGIC>MOL_PROPERTY
Bond
SciTegic.value.DoubleValue
0.121

@<SCITEGIC>MOL_PROPERTY
Angle
SciTegic.value.DoubleValue
2.425

@<SCITEGIC>MOL_PROPERTY
Pdih
SciTegic.value.DoubleValue
4.811

@<SCITEGIC>MOL_PROPERTY
Idih
SciTegic.value.DoubleValue
0.001

@<SCITEGIC>MOL_PROPERTY
Tether
SciTegic.value.DoubleValue
0.000

@<TRIPOS>MOLECULE
guest-s21_confgen4.mol2 : confsearch ligand conformer 151
          22          21           1
SMALL
USER_CHARGES
 
@<TRIPOS>ATOM
       1    C1      19.799842   16.623204   19.710138 C.2        1 MOL1         0.6145
       2    O1      20.923993   16.204313   19.515876 O.co2      1 MOL1        -0.6735
       3    O2      19.070896   17.027263   18.825695 O.co2      1 MOL1        -0.6735
       4    C2      19.269594   16.623048   21.141273 C.3        1 MOL1        -0.1985
       5    H1      19.512209   15.647881   21.579702 H          1 MOL1         0.0740
       6    H2      18.175548   16.693533   21.109892 H          1 MOL1         0.0740
       7    C3      19.853254   17.750426   22.032331 C.3        1 MOL1        -0.1882
       8    H3      19.536259   17.573816   23.067941 H          1 MOL1         0.0742
       9    H4      20.950436   17.691470   22.021455 H          1 MOL1         0.0742
      10    C4      19.398916   19.159336   21.580933 C.3        1 MOL1        -0.1880
      11    H5      18.303878   19.230064   21.632803 H          1 MOL1         0.0742
      12    H6      19.668186   19.303943   20.525673 H          1 MOL1         0.0742
      13    C5      20.032287   20.305184   22.405371 C.3        1 MOL1        -0.1880
      14    H7      21.127339   20.233932   22.353393 H          1 MOL1         0.0742
      15    H8      19.760990   21.261124   21.936884 H          1 MOL1         0.0742
      16    C6      19.580603   20.325914   23.883200 C.3        1 MOL1        -0.1856
      17    H9      19.912679   19.412466   24.393644 H          1 MOL1         0.0742
      18    H10     18.483228   20.342026   23.935183 H          1 MOL1         0.0742
      19    C7      20.146441   21.550620   24.629968 C.3        1 MOL1        -0.2871
      20    H11     21.244251   21.545375   24.616934 H          1 MOL1         0.0754
      21    H12     19.819858   21.549387   25.678016 H          1 MOL1         0.0754
      22    H13     19.802371   22.485826   24.169139 H          1 MOL1         0.0754
@<TRIPOS>BOND
    1     1     2    1
    2     1     3    2
    3     1     4    1
    4     4     5    1
    5     4     6    1
    6     4     7    1
    7     7     8    1
    8     7     9    1
    9     7    10    1
   10    10    11    1
   11    10    12    1
   12    10    13    1
   13    13    14    1
   14    13    15    1
   15    13    16    1
   16    16    17    1
   17    16    18    1
   18    16    19    1
   19    19    20    1
   20    19    21    1
   21    19    22    1
@<TRIPOS>SUBSTRUCTURE
       1 MOL1            1 RESIDUE      1      MOL     
@<SCITEGIC>MOL_PROPERTY
VConf Rank
SciTegic.value.IntegerValue
151

@<SCITEGIC>MOL_PROPERTY
Conf_Id
SciTegic.value.IntegerValue
53

@<SCITEGIC>MOL_PROPERTY
Delta U+W
SciTegic.value.DoubleValue
0.723

@<SCITEGIC>MOL_PROPERTY
U+W
SciTegic.value.DoubleValue
-52.436

@<SCITEGIC>MOL_PROPERTY
Grad RMS
SciTegic.value.DoubleValue
0.000000

@<SCITEGIC>MOL_PROPERTY
U
SciTegic.value.DoubleValue
8.587

@<SCITEGIC>MOL_PROPERTY
W
SciTegic.value.DoubleValue
-61.022

@<SCITEGIC>MOL_PROPERTY
W(PB)
SciTegic.value.DoubleValue
-63.285

@<SCITEGIC>MOL_PROPERTY
W(SA)
SciTegic.value.DoubleValue
2.263

@<SCITEGIC>MOL_PROPERTY
Valence
SciTegic.value.DoubleValue
7.933

@<SCITEGIC>MOL_PROPERTY
Coulomb
SciTegic.value.DoubleValue
-0.124

@<SCITEGIC>MOL_PROPERTY
VdW
SciTegic.value.DoubleValue
0.778

@<SCITEGIC>MOL_PROPERTY
VdW6
SciTegic.value.DoubleValue
-7.981

@<SCITEGIC>MOL_PROPERTY
VdW12
SciTegic.value.DoubleValue
8.759

@<SCITEGIC>MOL_PROPERTY
Bond
SciTegic.value.DoubleValue
0.160

@<SCITEGIC>MOL_PROPERTY
Angle
SciTegic.value.DoubleValue
2.698

@<SCITEGIC>MOL_PROPERTY
Pdih
SciTegic.value.DoubleValue
5.074

@<SCITEGIC>MOL_PROPERTY
Idih
SciTegic.value.DoubleValue
0.001

@<SCITEGIC>MOL_PROPERTY
Tether
SciTegic.value.DoubleValue
0.000

@<TRIPOS>MOLECULE
guest-s21_confgen4.mol2 : confsearch ligand conformer 152
          22          21           1
SMALL
USER_CHARGES
 
@<TRIPOS>ATOM
       1    C1      17.293630   21.244854   22.333538 C.2        1 MOL1         0.6145
       2    O1      17.751809   22.329701   22.033957 O.co2      1 MOL1        -0.6735
       3    O2      16.109177   21.041303   22.513038 O.co2      1 MOL1        -0.6735
       4    C2      18.254801   20.069471   22.470007 C.3        1 MOL1        -0.1985
       5    H1      17.847982   19.381639   23.220785 H          1 MOL1         0.0740
       6    H2      19.202323   20.459866   22.857979 H          1 MOL1         0.0740
       7    C3      18.486989   19.325384   21.130769 C.3        1 MOL1        -0.1882
       8    H3      17.510640   19.066690   20.698055 H          1 MOL1         0.0742
       9    H4      18.968210   20.008108   20.416927 H          1 MOL1         0.0742
      10    C4      19.327086   18.029654   21.257214 C.3        1 MOL1        -0.1880
      11    H5      19.380612   17.571905   20.259944 H          1 MOL1         0.0742
      12    H6      18.804146   17.301199   21.891912 H          1 MOL1         0.0742
      13    C5      20.774504   18.245703   21.767126 C.3        1 MOL1        -0.1880
      14    H7      21.436172   17.540918   21.245142 H          1 MOL1         0.0742
      15    H8      21.124261   19.251143   21.495606 H          1 MOL1         0.0742
      16    C6      20.929757   18.013644   23.287915 C.3        1 MOL1        -0.1856
      17    H9      20.630554   16.985757   23.535140 H          1 MOL1         0.0742
      18    H10     20.263029   18.678181   23.850258 H          1 MOL1         0.0742
      19    C7      22.382483   18.245373   23.749671 C.3        1 MOL1        -0.2871
      20    H11     23.072405   17.565028   23.233463 H          1 MOL1         0.0754
      21    H12     22.477910   18.070096   24.829117 H          1 MOL1         0.0754
      22    H13     22.699507   19.276248   23.544363 H          1 MOL1         0.0754
@<TRIPOS>BOND
    1     1     2    1
    2     1     3    2
    3     1     4    1
    4     4     5    1
    5     4     6    1
    6     4     7    1
    7     7     8    1
    8     7     9    1
    9     7    10    1
   10    10    11    1
   11    10    12    1
   12    10    13    1
   13    13    14    1
   14    13    15    1
   15    13    16    1
   16    16    17    1
   17    16    18    1
   18    16    19    1
   19    19    20    1
   20    19    21    1
   21    19    22    1
@<TRIPOS>SUBSTRUCTURE
       1 MOL1            1 RESIDUE      1      MOL     
@<SCITEGIC>MOL_PROPERTY
VConf Rank
SciTegic.value.IntegerValue
152

@<SCITEGIC>MOL_PROPERTY
Conf_Id
SciTegic.value.IntegerValue
5

@<SCITEGIC>MOL_PROPERTY
Delta U+W
SciTegic.value.DoubleValue
2.167

@<SCITEGIC>MOL_PROPERTY
U+W
SciTegic.value.DoubleValue
-50.993

@<SCITEGIC>MOL_PROPERTY
Grad RMS
SciTegic.value.DoubleValue
0.000000

@<SCITEGIC>MOL_PROPERTY
U
SciTegic.value.DoubleValue
10.045

@<SCITEGIC>MOL_PROPERTY
W
SciTegic.value.DoubleValue
-61.037

@<SCITEGIC>MOL_PROPERTY
W(PB)
SciTegic.value.DoubleValue
-63.303

@<SCITEGIC>MOL_PROPERTY
W(SA)
SciTegic.value.DoubleValue
2.266

@<SCITEGIC>MOL_PROPERTY
Valence
SciTegic.value.DoubleValue
10.100

@<SCITEGIC>MOL_PROPERTY
Coulomb
SciTegic.value.DoubleValue
-0.883

@<SCITEGIC>MOL_PROPERTY
VdW
SciTegic.value.DoubleValue
0.828

@<SCITEGIC>MOL_PROPERTY
VdW6
SciTegic.value.DoubleValue
-8.177

@<SCITEGIC>MOL_PROPERTY
VdW12
SciTegic.value.DoubleValue
9.005

@<SCITEGIC>MOL_PROPERTY
Bond
SciTegic.value.DoubleValue
0.182

@<SCITEGIC>MOL_PROPERTY
Angle
SciTegic.value.DoubleValue
2.988

@<SCITEGIC>MOL_PROPERTY
Pdih
SciTegic.value.DoubleValue
6.930

@<SCITEGIC>MOL_PROPERTY
Idih
SciTegic.value.DoubleValue
0.001

@<SCITEGIC>MOL_PROPERTY
Tether
SciTegic.value.DoubleValue
0.000

@<TRIPOS>MOLECULE
guest-s21_confgen4.mol2 : confsearch ligand conformer 153
          22          21           1
SMALL
USER_CHARGES
 
@<TRIPOS>ATOM
       1    C1      22.729718   19.307100   24.041179 C.2        1 MOL1         0.6145
       2    O1      22.473295   19.473477   25.217246 O.co2      1 MOL1        -0.6735
       3    O2      23.853585   19.366290   23.582917 O.co2      1 MOL1        -0.6735
       4    C2      21.575638   19.031536   23.084014 C.3        1 MOL1        -0.1985
       5    H1      20.821819   18.454760   23.631569 H          1 MOL1         0.0740
       6    H2      21.950596   18.398528   22.271002 H          1 MOL1         0.0740
       7    C3      20.949665   20.327474   22.509693 C.3        1 MOL1        -0.1882
       8    H3      20.508822   20.910125   23.330321 H          1 MOL1         0.0742
       9    H4      21.751856   20.948885   22.088078 H          1 MOL1         0.0742
      10    C4      19.883685   20.089389   21.410751 C.3        1 MOL1        -0.1880
      11    H5      20.340333   19.594068   20.542947 H          1 MOL1         0.0742
      12    H6      19.553076   21.073837   21.052276 H          1 MOL1         0.0742
      13    C5      18.634232   19.303290   21.882585 C.3        1 MOL1        -0.1880
      14    H7      18.469428   19.465662   22.956567 H          1 MOL1         0.0742
      15    H8      17.751854   19.713760   21.372766 H          1 MOL1         0.0742
      16    C6      18.708136   17.790511   21.571463 C.3        1 MOL1        -0.1856
      17    H9      19.593845   17.342899   22.037862 H          1 MOL1         0.0742
      18    H10     18.815166   17.643074   20.487950 H          1 MOL1         0.0742
      19    C7      17.448362   17.050043   22.063409 C.3        1 MOL1        -0.2871
      20    H11     17.332503   17.152726   23.150328 H          1 MOL1         0.0754
      21    H12     17.512626   15.979530   21.829091 H          1 MOL1         0.0754
      22    H13     16.545232   17.448610   21.582959 H          1 MOL1         0.0754
@<TRIPOS>BOND
    1     1     2    1
    2     1     3    2
    3     1     4    1
    4     4     5    1
    5     4     6    1
    6     4     7    1
    7     7     8    1
    8     7     9    1
    9     7    10    1
   10    10    11    1
   11    10    12    1
   12    10    13    1
   13    13    14    1
   14    13    15    1
   15    13    16    1
   16    16    17    1
   17    16    18    1
   18    16    19    1
   19    19    20    1
   20    19    21    1
   21    19    22    1
@<TRIPOS>SUBSTRUCTURE
       1 MOL1            1 RESIDUE      1      MOL     
@<SCITEGIC>MOL_PROPERTY
VConf Rank
SciTegic.value.IntegerValue
153

@<SCITEGIC>MOL_PROPERTY
Conf_Id
SciTegic.value.IntegerValue
6

@<SCITEGIC>MOL_PROPERTY
Delta U+W
SciTegic.value.DoubleValue
2.118

@<SCITEGIC>MOL_PROPERTY
U+W
SciTegic.value.DoubleValue
-51.042

@<SCITEGIC>MOL_PROPERTY
Grad RMS
SciTegic.value.DoubleValue
0.000000

@<SCITEGIC>MOL_PROPERTY
U
SciTegic.value.DoubleValue
10.045

@<SCITEGIC>MOL_PROPERTY
W
SciTegic.value.DoubleValue
-61.086

@<SCITEGIC>MOL_PROPERTY
W(PB)
SciTegic.value.DoubleValue
-63.356

@<SCITEGIC>MOL_PROPERTY
W(SA)
SciTegic.value.DoubleValue
2.270

@<SCITEGIC>MOL_PROPERTY
Valence
SciTegic.value.DoubleValue
10.100

@<SCITEGIC>MOL_PROPERTY
Coulomb
SciTegic.value.DoubleValue
-0.883

@<SCITEGIC>MOL_PROPERTY
VdW
SciTegic.value.DoubleValue
0.828

@<SCITEGIC>MOL_PROPERTY
VdW6
SciTegic.value.DoubleValue
-8.177

@<SCITEGIC>MOL_PROPERTY
VdW12
SciTegic.value.DoubleValue
9.004

@<SCITEGIC>MOL_PROPERTY
Bond
SciTegic.value.DoubleValue
0.182

@<SCITEGIC>MOL_PROPERTY
Angle
SciTegic.value.DoubleValue
2.988

@<SCITEGIC>MOL_PROPERTY
Pdih
SciTegic.value.DoubleValue
6.930

@<SCITEGIC>MOL_PROPERTY
Idih
SciTegic.value.DoubleValue
0.001

@<SCITEGIC>MOL_PROPERTY
Tether
SciTegic.value.DoubleValue
0.000

@<TRIPOS>MOLECULE
guest-s21_confgen4.mol2 : confsearch ligand conformer 154
          22          21           1
SMALL
USER_CHARGES
 
@<TRIPOS>ATOM
       1    C1      20.664684   21.460495   22.274708 C.2        1 MOL1         0.6145
       2    O1      21.695826   21.499341   22.917151 O.co2      1 MOL1        -0.6735
       3    O2      19.656949   22.063484   22.587643 O.co2      1 MOL1        -0.6735
       4    C2      20.653967   20.669909   20.967683 C.3        1 MOL1        -0.1985
       5    H1      21.380820   21.156746   20.307223 H          1 MOL1         0.0740
       6    H2      19.672622   20.782167   20.491026 H          1 MOL1         0.0740
       7    C3      21.019547   19.164558   21.099401 C.3        1 MOL1        -0.1882
       8    H3      21.335365   18.804816   20.110833 H          1 MOL1         0.0742
       9    H4      21.892466   19.047113   21.756510 H          1 MOL1         0.0742
      10    C4      19.863318   18.255376   21.584617 C.3        1 MOL1        -0.1880
      11    H5      20.187647   17.210023   21.489629 H          1 MOL1         0.0742
      12    H6      18.997351   18.371495   20.918700 H          1 MOL1         0.0742
      13    C5      19.432136   18.510247   23.046681 C.3        1 MOL1        -0.1880
      14    H7      20.315415   18.495582   23.699864 H          1 MOL1         0.0742
      15    H8      18.983676   19.507827   23.134891 H          1 MOL1         0.0742
      16    C6      18.412322   17.458524   23.532276 C.3        1 MOL1        -0.1856
      17    H9      18.851034   16.453843   23.458091 H          1 MOL1         0.0742
      18    H10     17.528994   17.470766   22.878826 H          1 MOL1         0.0742
      19    C7      17.976566   17.720029   24.988006 C.3        1 MOL1        -0.2871
      20    H11     18.837584   17.682533   25.668162 H          1 MOL1         0.0754
      21    H12     17.251276   16.964448   25.316756 H          1 MOL1         0.0754
      22    H13     17.505919   18.707208   25.085320 H          1 MOL1         0.0754
@<TRIPOS>BOND
    1     1     2    1
    2     1     3    2
    3     1     4    1
    4     4     5    1
    5     4     6    1
    6     4     7    1
    7     7     8    1
    8     7     9    1
    9     7    10    1
   10    10    11    1
   11    10    12    1
   12    10    13    1
   13    13    14    1
   14    13    15    1
   15    13    16    1
   16    16    17    1
   17    16    18    1
   18    16    19    1
   19    19    20    1
   20    19    21    1
   21    19    22    1
@<TRIPOS>SUBSTRUCTURE
       1 MOL1            1 RESIDUE      1      MOL     
@<SCITEGIC>MOL_PROPERTY
VConf Rank
SciTegic.value.IntegerValue
154

@<SCITEGIC>MOL_PROPERTY
Conf_Id
SciTegic.value.IntegerValue
8

@<SCITEGIC>MOL_PROPERTY
Delta U+W
SciTegic.value.DoubleValue
1.886

@<SCITEGIC>MOL_PROPERTY
U+W
SciTegic.value.DoubleValue
-51.274

@<SCITEGIC>MOL_PROPERTY
Grad RMS
SciTegic.value.DoubleValue
0.000000

@<SCITEGIC>MOL_PROPERTY
U
SciTegic.value.DoubleValue
11.237

@<SCITEGIC>MOL_PROPERTY
W
SciTegic.value.DoubleValue
-62.510

@<SCITEGIC>MOL_PROPERTY
W(PB)
SciTegic.value.DoubleValue
-64.777

@<SCITEGIC>MOL_PROPERTY
W(SA)
SciTegic.value.DoubleValue
2.267

@<SCITEGIC>MOL_PROPERTY
Valence
SciTegic.value.DoubleValue
9.029

@<SCITEGIC>MOL_PROPERTY
Coulomb
SciTegic.value.DoubleValue
1.667

@<SCITEGIC>MOL_PROPERTY
VdW
SciTegic.value.DoubleValue
0.540

@<SCITEGIC>MOL_PROPERTY
VdW6
SciTegic.value.DoubleValue
-8.825

@<SCITEGIC>MOL_PROPERTY
VdW12
SciTegic.value.DoubleValue
9.365

@<SCITEGIC>MOL_PROPERTY
Bond
SciTegic.value.DoubleValue
0.186

@<SCITEGIC>MOL_PROPERTY
Angle
SciTegic.value.DoubleValue
3.195

@<SCITEGIC>MOL_PROPERTY
Pdih
SciTegic.value.DoubleValue
5.642

@<SCITEGIC>MOL_PROPERTY
Idih
SciTegic.value.DoubleValue
0.007

@<SCITEGIC>MOL_PROPERTY
Tether
SciTegic.value.DoubleValue
0.000

@<TRIPOS>MOLECULE
guest-s21_confgen4.mol2 : confsearch ligand conformer 155
          22          21           1
SMALL
USER_CHARGES
 
@<TRIPOS>ATOM
       1    C1      18.747368   21.581852   23.762469 C.2        1 MOL1         0.6145
       2    O1      19.835653   21.693429   24.291572 O.co2      1 MOL1        -0.6735
       3    O2      17.695151   21.741906   24.349435 O.co2      1 MOL1        -0.6735
       4    C2      18.697012   21.252401   22.273143 C.3        1 MOL1        -0.1985
       5    H1      19.691316   21.416813   21.842984 H          1 MOL1         0.0740
       6    H2      18.031302   21.983956   21.800512 H          1 MOL1         0.0740
       7    C3      18.190384   19.818550   21.956051 C.3        1 MOL1        -0.1882
       8    H3      17.162946   19.718578   22.332486 H          1 MOL1         0.0742
       9    H4      18.132260   19.689410   20.866889 H          1 MOL1         0.0742
      10    C4      19.052640   18.681868   22.558711 C.3        1 MOL1        -0.1880
      11    H5      18.549198   17.729189   22.351487 H          1 MOL1         0.0742
      12    H6      19.087335   18.782431   23.652150 H          1 MOL1         0.0742
      13    C5      20.494248   18.637043   21.995505 C.3        1 MOL1        -0.1880
      14    H7      20.463827   18.556331   20.900493 H          1 MOL1         0.0742
      15    H8      21.003022   19.581832   22.226709 H          1 MOL1         0.0742
      16    C6      21.345056   17.483587   22.576593 C.3        1 MOL1        -0.1856
      17    H9      21.364240   17.553155   23.673029 H          1 MOL1         0.0742
      18    H10     22.383374   17.609298   22.240038 H          1 MOL1         0.0742
      19    C7      20.853643   16.082645   22.151519 C.3        1 MOL1        -0.2871
      20    H11     19.863750   15.860212   22.568632 H          1 MOL1         0.0754
      21    H12     21.545281   15.309038   22.509382 H          1 MOL1         0.0754
      22    H13     20.793494   16.002305   21.058347 H          1 MOL1         0.0754
@<TRIPOS>BOND
    1     1     2    1
    2     1     3    2
    3     1     4    1
    4     4     5    1
    5     4     6    1
    6     4     7    1
    7     7     8    1
    8     7     9    1
    9     7    10    1
   10    10    11    1
   11    10    12    1
   12    10    13    1
   13    13    14    1
   14    13    15    1
   15    13    16    1
   16    16    17    1
   17    16    18    1
   18    16    19    1
   19    19    20    1
   20    19    21    1
   21    19    22    1
@<TRIPOS>SUBSTRUCTURE
       1 MOL1            1 RESIDUE      1      MOL     
@<SCITEGIC>MOL_PROPERTY
VConf Rank
SciTegic.value.IntegerValue
155

@<SCITEGIC>MOL_PROPERTY
Conf_Id
SciTegic.value.IntegerValue
93

@<SCITEGIC>MOL_PROPERTY
Delta U+W
SciTegic.value.DoubleValue
1.836

@<SCITEGIC>MOL_PROPERTY
U+W
SciTegic.value.DoubleValue
-51.323

@<SCITEGIC>MOL_PROPERTY
Grad RMS
SciTegic.value.DoubleValue
0.000000

@<SCITEGIC>MOL_PROPERTY
U
SciTegic.value.DoubleValue
10.427

@<SCITEGIC>MOL_PROPERTY
W
SciTegic.value.DoubleValue
-61.751

@<SCITEGIC>MOL_PROPERTY
W(PB)
SciTegic.value.DoubleValue
-63.980

@<SCITEGIC>MOL_PROPERTY
W(SA)
SciTegic.value.DoubleValue
2.230

@<SCITEGIC>MOL_PROPERTY
Valence
SciTegic.value.DoubleValue
8.446

@<SCITEGIC>MOL_PROPERTY
Coulomb
SciTegic.value.DoubleValue
1.306

@<SCITEGIC>MOL_PROPERTY
VdW
SciTegic.value.DoubleValue
0.676

@<SCITEGIC>MOL_PROPERTY
VdW6
SciTegic.value.DoubleValue
-8.928

@<SCITEGIC>MOL_PROPERTY
VdW12
SciTegic.value.DoubleValue
9.604

@<SCITEGIC>MOL_PROPERTY
Bond
SciTegic.value.DoubleValue
0.209

@<SCITEGIC>MOL_PROPERTY
Angle
SciTegic.value.DoubleValue
3.066

@<SCITEGIC>MOL_PROPERTY
Pdih
SciTegic.value.DoubleValue
5.170

@<SCITEGIC>MOL_PROPERTY
Idih
SciTegic.value.DoubleValue
0.001

@<SCITEGIC>MOL_PROPERTY
Tether
SciTegic.value.DoubleValue
0.000

@<TRIPOS>MOLECULE
guest-s21_confgen4.mol2 : confsearch ligand conformer 156
          22          21           1
SMALL
USER_CHARGES
 
@<TRIPOS>ATOM
       1    C1      18.292965   21.823552   21.983803 C.2        1 MOL1         0.6145
       2    O1      18.172537   22.705793   22.811121 O.co2      1 MOL1        -0.6735
       3    O2      17.352781   21.234753   21.487682 O.co2      1 MOL1        -0.6735
       4    C2      19.700998   21.457838   21.522437 C.3        1 MOL1        -0.1985
       5    H1      20.207898   22.391782   21.253132 H          1 MOL1         0.0740
       6    H2      19.627220   20.869844   20.600737 H          1 MOL1         0.0740
       7    C3      20.544187   20.706132   22.588795 C.3        1 MOL1        -0.1882
       8    H3      21.554828   20.535104   22.194223 H          1 MOL1         0.0742
       9    H4      20.662875   21.358152   23.465213 H          1 MOL1         0.0742
      10    C4      19.942836   19.356187   23.052213 C.3        1 MOL1        -0.1880
      11    H5      18.945288   19.522286   23.481437 H          1 MOL1         0.0742
      12    H6      20.568941   18.968398   23.865606 H          1 MOL1         0.0742
      13    C5      19.852745   18.301340   21.922335 C.3        1 MOL1        -0.1880
      14    H7      19.205325   18.682274   21.121915 H          1 MOL1         0.0742
      15    H8      20.844958   18.146890   21.477191 H          1 MOL1         0.0742
      16    C6      19.279236   16.944393   22.393266 C.3        1 MOL1        -0.1856
      17    H9      19.114390   16.308397   21.512635 H          1 MOL1         0.0742
      18    H10     18.293241   17.098304   22.853162 H          1 MOL1         0.0742
      19    C7      20.202882   16.195225   23.378371 C.3        1 MOL1        -0.2871
      20    H11     20.301238   16.736116   24.327641 H          1 MOL1         0.0754
      21    H12     21.205589   16.061053   22.952136 H          1 MOL1         0.0754
      22    H13     19.796223   15.200998   23.604286 H          1 MOL1         0.0754
@<TRIPOS>BOND
    1     1     2    1
    2     1     3    2
    3     1     4    1
    4     4     5    1
    5     4     6    1
    6     4     7    1
    7     7     8    1
    8     7     9    1
    9     7    10    1
   10    10    11    1
   11    10    12    1
   12    10    13    1
   13    13    14    1
   14    13    15    1
   15    13    16    1
   16    16    17    1
   17    16    18    1
   18    16    19    1
   19    19    20    1
   20    19    21    1
   21    19    22    1
@<TRIPOS>SUBSTRUCTURE
       1 MOL1            1 RESIDUE      1      MOL     
@<SCITEGIC>MOL_PROPERTY
VConf Rank
SciTegic.value.IntegerValue
156

@<SCITEGIC>MOL_PROPERTY
Conf_Id
SciTegic.value.IntegerValue
70

@<SCITEGIC>MOL_PROPERTY
Delta U+W
SciTegic.value.DoubleValue
1.803

@<SCITEGIC>MOL_PROPERTY
U+W
SciTegic.value.DoubleValue
-51.356

@<SCITEGIC>MOL_PROPERTY
Grad RMS
SciTegic.value.DoubleValue
0.000000

@<SCITEGIC>MOL_PROPERTY
U
SciTegic.value.DoubleValue
10.428

@<SCITEGIC>MOL_PROPERTY
W
SciTegic.value.DoubleValue
-61.784

@<SCITEGIC>MOL_PROPERTY
W(PB)
SciTegic.value.DoubleValue
-64.014

@<SCITEGIC>MOL_PROPERTY
W(SA)
SciTegic.value.DoubleValue
2.230

@<SCITEGIC>MOL_PROPERTY
Valence
SciTegic.value.DoubleValue
8.445

@<SCITEGIC>MOL_PROPERTY
Coulomb
SciTegic.value.DoubleValue
1.306

@<SCITEGIC>MOL_PROPERTY
VdW
SciTegic.value.DoubleValue
0.676

@<SCITEGIC>MOL_PROPERTY
VdW6
SciTegic.value.DoubleValue
-8.929

@<SCITEGIC>MOL_PROPERTY
VdW12
SciTegic.value.DoubleValue
9.605

@<SCITEGIC>MOL_PROPERTY
Bond
SciTegic.value.DoubleValue
0.209

@<SCITEGIC>MOL_PROPERTY
Angle
SciTegic.value.DoubleValue
3.066

@<SCITEGIC>MOL_PROPERTY
Pdih
SciTegic.value.DoubleValue
5.170

@<SCITEGIC>MOL_PROPERTY
Idih
SciTegic.value.DoubleValue
0.001

@<SCITEGIC>MOL_PROPERTY
Tether
SciTegic.value.DoubleValue
0.000

@<TRIPOS>MOLECULE
guest-s21_confgen4.mol2 : confsearch ligand conformer 157
          22          21           1
SMALL
USER_CHARGES
 
@<TRIPOS>ATOM
       1    C1      20.870987   21.820723   21.023772 C.2        1 MOL1         0.6145
       2    O1      21.857960   21.453350   20.417280 O.co2      1 MOL1        -0.6735
       3    O2      20.889877   22.684144   21.878773 O.co2      1 MOL1        -0.6735
       4    C2      19.532112   21.175961   20.676224 C.3        1 MOL1        -0.1985
       5    H1      19.460882   21.135838   19.582900 H          1 MOL1         0.0740
       6    H2      18.726124   21.834116   21.022712 H          1 MOL1         0.0740
       7    C3      19.349285   19.750838   21.259819 C.3        1 MOL1        -0.1882
       8    H3      18.425484   19.315585   20.855578 H          1 MOL1         0.0742
       9    H4      20.176867   19.116786   20.915266 H          1 MOL1         0.0742
      10    C4      19.281208   19.748636   22.805757 C.3        1 MOL1        -0.1880
      11    H5      18.505330   20.455645   23.129781 H          1 MOL1         0.0742
      12    H6      20.228875   20.117826   23.221607 H          1 MOL1         0.0742
      13    C5      18.961524   18.359174   23.406362 C.3        1 MOL1        -0.1880
      14    H7      18.811056   18.474229   24.488495 H          1 MOL1         0.0742
      15    H8      18.010350   17.991263   22.997983 H          1 MOL1         0.0742
      16    C6      20.072631   17.313036   23.163043 C.3        1 MOL1        -0.1856
      17    H9      21.034272   17.703244   23.523949 H          1 MOL1         0.0742
      18    H10     20.186438   17.125168   22.087352 H          1 MOL1         0.0742
      19    C7      19.760774   15.981005   23.874501 C.3        1 MOL1        -0.2871
      20    H11     19.678120   16.124733   24.959795 H          1 MOL1         0.0754
      21    H12     20.556933   15.248196   23.689618 H          1 MOL1         0.0754
      22    H13     18.816361   15.554300   23.512039 H          1 MOL1         0.0754
@<TRIPOS>BOND
    1     1     2    1
    2     1     3    2
    3     1     4    1
    4     4     5    1
    5     4     6    1
    6     4     7    1
    7     7     8    1
    8     7     9    1
    9     7    10    1
   10    10    11    1
   11    10    12    1
   12    10    13    1
   13    13    14    1
   14    13    15    1
   15    13    16    1
   16    16    17    1
   17    16    18    1
   18    16    19    1
   19    19    20    1
   20    19    21    1
   21    19    22    1
@<TRIPOS>SUBSTRUCTURE
       1 MOL1            1 RESIDUE      1      MOL     
@<SCITEGIC>MOL_PROPERTY
VConf Rank
SciTegic.value.IntegerValue
157

@<SCITEGIC>MOL_PROPERTY
Conf_Id
SciTegic.value.IntegerValue
85

@<SCITEGIC>MOL_PROPERTY
Delta U+W
SciTegic.value.DoubleValue
0.707

@<SCITEGIC>MOL_PROPERTY
U+W
SciTegic.value.DoubleValue
-52.452

@<SCITEGIC>MOL_PROPERTY
Grad RMS
SciTegic.value.DoubleValue
0.000000

@<SCITEGIC>MOL_PROPERTY
U
SciTegic.value.DoubleValue
8.925

@<SCITEGIC>MOL_PROPERTY
W
SciTegic.value.DoubleValue
-61.378

@<SCITEGIC>MOL_PROPERTY
W(PB)
SciTegic.value.DoubleValue
-63.661

@<SCITEGIC>MOL_PROPERTY
W(SA)
SciTegic.value.DoubleValue
2.283

@<SCITEGIC>MOL_PROPERTY
Valence
SciTegic.value.DoubleValue
7.881

@<SCITEGIC>MOL_PROPERTY
Coulomb
SciTegic.value.DoubleValue
0.349

@<SCITEGIC>MOL_PROPERTY
VdW
SciTegic.value.DoubleValue
0.695

@<SCITEGIC>MOL_PROPERTY
VdW6
SciTegic.value.DoubleValue
-8.049

@<SCITEGIC>MOL_PROPERTY
VdW12
SciTegic.value.DoubleValue
8.743

@<SCITEGIC>MOL_PROPERTY
Bond
SciTegic.value.DoubleValue
0.156

@<SCITEGIC>MOL_PROPERTY
Angle
SciTegic.value.DoubleValue
2.660

@<SCITEGIC>MOL_PROPERTY
Pdih
SciTegic.value.DoubleValue
5.064

@<SCITEGIC>MOL_PROPERTY
Idih
SciTegic.value.DoubleValue
0.001

@<SCITEGIC>MOL_PROPERTY
Tether
SciTegic.value.DoubleValue
0.000

@<TRIPOS>MOLECULE
guest-s21_confgen4.mol2 : confsearch ligand conformer 158
          22          21           1
SMALL
USER_CHARGES
 
@<TRIPOS>ATOM
       1    C1      16.543390   18.646085   22.618127 C.2        1 MOL1         0.6145
       2    O1      16.185482   17.599557   23.121735 O.co2      1 MOL1        -0.6735
       3    O2      16.107903   19.732642   22.944805 O.co2      1 MOL1        -0.6735
       4    C2      17.579042   18.593254   21.498293 C.3        1 MOL1        -0.1985
       5    H1      17.220355   19.242333   20.690809 H          1 MOL1         0.0740
       6    H2      17.609308   17.573388   21.096035 H          1 MOL1         0.0740
       7    C3      19.000147   19.041386   21.928790 C.3        1 MOL1        -0.1882
       8    H3      19.624924   19.118847   21.030147 H          1 MOL1         0.0742
       9    H4      18.947668   20.045104   22.372719 H          1 MOL1         0.0742
      10    C4      19.657668   18.058728   22.925350 C.3        1 MOL1        -0.1880
      11    H5      19.784216   17.080018   22.442842 H          1 MOL1         0.0742
      12    H6      18.978498   17.896665   23.773468 H          1 MOL1         0.0742
      13    C5      21.020766   18.537365   23.485169 C.3        1 MOL1        -0.1880
      14    H7      20.888958   19.470158   24.050370 H          1 MOL1         0.0742
      15    H8      21.357055   17.790459   24.217226 H          1 MOL1         0.0742
      16    C6      22.135658   18.706307   22.422918 C.3        1 MOL1        -0.1856
      17    H9      21.958471   18.032095   21.573652 H          1 MOL1         0.0742
      18    H10     23.092071   18.394994   22.865249 H          1 MOL1         0.0742
      19    C7      22.290311   20.161937   21.928698 C.3        1 MOL1        -0.2871
      20    H11     21.372322   20.533905   21.459830 H          1 MOL1         0.0754
      21    H12     23.097237   20.232083   21.187909 H          1 MOL1         0.0754
      22    H13     22.540271   20.832038   22.761507 H          1 MOL1         0.0754
@<TRIPOS>BOND
    1     1     2    1
    2     1     3    2
    3     1     4    1
    4     4     5    1
    5     4     6    1
    6     4     7    1
    7     7     8    1
    8     7     9    1
    9     7    10    1
   10    10    11    1
   11    10    12    1
   12    10    13    1
   13    13    14    1
   14    13    15    1
   15    13    16    1
   16    16    17    1
   17    16    18    1
   18    16    19    1
   19    19    20    1
   20    19    21    1
   21    19    22    1
@<TRIPOS>SUBSTRUCTURE
       1 MOL1            1 RESIDUE      1      MOL     
@<SCITEGIC>MOL_PROPERTY
VConf Rank
SciTegic.value.IntegerValue
158

@<SCITEGIC>MOL_PROPERTY
Conf_Id
SciTegic.value.IntegerValue
82

@<SCITEGIC>MOL_PROPERTY
Delta U+W
SciTegic.value.DoubleValue
3.438

@<SCITEGIC>MOL_PROPERTY
U+W
SciTegic.value.DoubleValue
-49.721

@<SCITEGIC>MOL_PROPERTY
Grad RMS
SciTegic.value.DoubleValue
0.000000

@<SCITEGIC>MOL_PROPERTY
U
SciTegic.value.DoubleValue
11.773

@<SCITEGIC>MOL_PROPERTY
W
SciTegic.value.DoubleValue
-61.495

@<SCITEGIC>MOL_PROPERTY
W(PB)
SciTegic.value.DoubleValue
-63.749

@<SCITEGIC>MOL_PROPERTY
W(SA)
SciTegic.value.DoubleValue
2.254

@<SCITEGIC>MOL_PROPERTY
Valence
SciTegic.value.DoubleValue
10.419

@<SCITEGIC>MOL_PROPERTY
Coulomb
SciTegic.value.DoubleValue
0.565

@<SCITEGIC>MOL_PROPERTY
VdW
SciTegic.value.DoubleValue
0.789

@<SCITEGIC>MOL_PROPERTY
VdW6
SciTegic.value.DoubleValue
-8.847

@<SCITEGIC>MOL_PROPERTY
VdW12
SciTegic.value.DoubleValue
9.636

@<SCITEGIC>MOL_PROPERTY
Bond
SciTegic.value.DoubleValue
0.200

@<SCITEGIC>MOL_PROPERTY
Angle
SciTegic.value.DoubleValue
3.187

@<SCITEGIC>MOL_PROPERTY
Pdih
SciTegic.value.DoubleValue
7.032

@<SCITEGIC>MOL_PROPERTY
Idih
SciTegic.value.DoubleValue
0.001

@<SCITEGIC>MOL_PROPERTY
Tether
SciTegic.value.DoubleValue
0.000

@<TRIPOS>MOLECULE
guest-s21_confgen4.mol2 : confsearch ligand conformer 159
          22          21           1
SMALL
USER_CHARGES
 
@<TRIPOS>ATOM
       1    C1      21.733375   16.118386   22.714647 C.2        1 MOL1         0.6145
       2    O1      22.901588   16.398199   22.530372 O.co2      1 MOL1        -0.6735
       3    O2      21.346036   15.419911   23.630638 O.co2      1 MOL1        -0.6735
       4    C2      20.700682   16.655364   21.727430 C.3        1 MOL1        -0.1985
       5    H1      19.785646   16.057375   21.816731 H          1 MOL1         0.0740
       6    H2      21.093960   16.484853   20.718347 H          1 MOL1         0.0740
       7    C3      20.375884   18.161244   21.907773 C.3        1 MOL1        -0.1882
       8    H3      21.306659   18.743430   21.863102 H          1 MOL1         0.0742
       9    H4      19.753328   18.483800   21.063802 H          1 MOL1         0.0742
      10    C4      19.633915   18.455574   23.232135 C.3        1 MOL1        -0.1880
      11    H5      20.206855   18.032284   24.068439 H          1 MOL1         0.0742
      12    H6      18.665476   17.937091   23.230736 H          1 MOL1         0.0742
      13    C5      19.411255   19.962467   23.515375 C.3        1 MOL1        -0.1880
      14    H7      18.931379   20.045384   24.500113 H          1 MOL1         0.0742
      15    H8      20.378547   20.474399   23.611293 H          1 MOL1         0.0742
      16    C6      18.517820   20.692325   22.481461 C.3        1 MOL1        -0.1856
      17    H9      17.901612   21.432451   23.010423 H          1 MOL1         0.0742
      18    H10     17.815468   19.985685   22.018242 H          1 MOL1         0.0742
      19    C7      19.326528   21.434784   21.394368 C.3        1 MOL1        -0.2871
      20    H11     19.978391   22.194905   21.844233 H          1 MOL1         0.0754
      21    H12     18.651483   21.943622   20.694214 H          1 MOL1         0.0754
      22    H13     19.956081   20.750348   20.814615 H          1 MOL1         0.0754
@<TRIPOS>BOND
    1     1     2    1
    2     1     3    2
    3     1     4    1
    4     4     5    1
    5     4     6    1
    6     4     7    1
    7     7     8    1
    8     7     9    1
    9     7    10    1
   10    10    11    1
   11    10    12    1
   12    10    13    1
   13    13    14    1
   14    13    15    1
   15    13    16    1
   16    16    17    1
   17    16    18    1
   18    16    19    1
   19    19    20    1
   20    19    21    1
   21    19    22    1
@<TRIPOS>SUBSTRUCTURE
       1 MOL1            1 RESIDUE      1      MOL     
@<SCITEGIC>MOL_PROPERTY
VConf Rank
SciTegic.value.IntegerValue
159

@<SCITEGIC>MOL_PROPERTY
Conf_Id
SciTegic.value.IntegerValue
94

@<SCITEGIC>MOL_PROPERTY
Delta U+W
SciTegic.value.DoubleValue
3.471

@<SCITEGIC>MOL_PROPERTY
U+W
SciTegic.value.DoubleValue
-49.688

@<SCITEGIC>MOL_PROPERTY
Grad RMS
SciTegic.value.DoubleValue
0.000000

@<SCITEGIC>MOL_PROPERTY
U
SciTegic.value.DoubleValue
11.773

@<SCITEGIC>MOL_PROPERTY
W
SciTegic.value.DoubleValue
-61.461

@<SCITEGIC>MOL_PROPERTY
W(PB)
SciTegic.value.DoubleValue
-63.710

@<SCITEGIC>MOL_PROPERTY
W(SA)
SciTegic.value.DoubleValue
2.248

@<SCITEGIC>MOL_PROPERTY
Valence
SciTegic.value.DoubleValue
10.419

@<SCITEGIC>MOL_PROPERTY
Coulomb
SciTegic.value.DoubleValue
0.566

@<SCITEGIC>MOL_PROPERTY
VdW
SciTegic.value.DoubleValue
0.789

@<SCITEGIC>MOL_PROPERTY
VdW6
SciTegic.value.DoubleValue
-8.847

@<SCITEGIC>MOL_PROPERTY
VdW12
SciTegic.value.DoubleValue
9.636

@<SCITEGIC>MOL_PROPERTY
Bond
SciTegic.value.DoubleValue
0.200

@<SCITEGIC>MOL_PROPERTY
Angle
SciTegic.value.DoubleValue
3.187

@<SCITEGIC>MOL_PROPERTY
Pdih
SciTegic.value.DoubleValue
7.032

@<SCITEGIC>MOL_PROPERTY
Idih
SciTegic.value.DoubleValue
0.001

@<SCITEGIC>MOL_PROPERTY
Tether
SciTegic.value.DoubleValue
0.000

@<TRIPOS>MOLECULE
guest-s21_confgen4.mol2 : confsearch ligand conformer 160
          22          21           1
SMALL
USER_CHARGES
 
@<TRIPOS>ATOM
       1    C1      20.225195   15.792513   22.127126 C.2        1 MOL1         0.6145
       2    O1      20.896997   15.106420   21.382373 O.co2      1 MOL1        -0.6735
       3    O2      19.183428   15.418997   22.628906 O.co2      1 MOL1        -0.6735
       4    C2      20.706373   17.206290   22.433119 C.3        1 MOL1        -0.1985
       5    H1      21.802805   17.202546   22.425686 H          1 MOL1         0.0740
       6    H2      20.388193   17.453866   23.452188 H          1 MOL1         0.0740
       7    C3      20.168175   18.254722   21.425356 C.3        1 MOL1        -0.1882
       8    H3      20.432953   17.934950   20.408136 H          1 MOL1         0.0742
       9    H4      19.070822   18.270810   21.462565 H          1 MOL1         0.0742
      10    C4      20.729855   19.679953   21.656976 C.3        1 MOL1        -0.1880
      11    H5      20.342971   20.345619   20.874235 H          1 MOL1         0.0742
      12    H6      21.819115   19.658611   21.516966 H          1 MOL1         0.0742
      13    C5      20.421901   20.293074   23.048527 C.3        1 MOL1        -0.1880
      14    H7      20.946408   19.718499   23.823128 H          1 MOL1         0.0742
      15    H8      20.850521   21.303650   23.088103 H          1 MOL1         0.0742
      16    C6      18.919563   20.374315   23.415008 C.3        1 MOL1        -0.1856
      17    H9      18.827727   20.797073   24.424835 H          1 MOL1         0.0742
      18    H10     18.487998   19.365850   23.467480 H          1 MOL1         0.0742
      19    C7      18.099199   21.242254   22.436494 C.3        1 MOL1        -0.2871
      20    H11     18.523558   22.251424   22.356187 H          1 MOL1         0.0754
      21    H12     17.062309   21.337308   22.783725 H          1 MOL1         0.0754
      22    H13     18.075099   20.797620   21.433660 H          1 MOL1         0.0754
@<TRIPOS>BOND
    1     1     2    1
    2     1     3    2
    3     1     4    1
    4     4     5    1
    5     4     6    1
    6     4     7    1
    7     7     8    1
    8     7     9    1
    9     7    10    1
   10    10    11    1
   11    10    12    1
   12    10    13    1
   13    13    14    1
   14    13    15    1
   15    13    16    1
   16    16    17    1
   17    16    18    1
   18    16    19    1
   19    19    20    1
   20    19    21    1
   21    19    22    1
@<TRIPOS>SUBSTRUCTURE
       1 MOL1            1 RESIDUE      1      MOL     
@<SCITEGIC>MOL_PROPERTY
VConf Rank
SciTegic.value.IntegerValue
160

@<SCITEGIC>MOL_PROPERTY
Conf_Id
SciTegic.value.IntegerValue
56

@<SCITEGIC>MOL_PROPERTY
Delta U+W
SciTegic.value.DoubleValue
0.853

@<SCITEGIC>MOL_PROPERTY
U+W
SciTegic.value.DoubleValue
-52.307

@<SCITEGIC>MOL_PROPERTY
Grad RMS
SciTegic.value.DoubleValue
0.000000

@<SCITEGIC>MOL_PROPERTY
U
SciTegic.value.DoubleValue
8.874

@<SCITEGIC>MOL_PROPERTY
W
SciTegic.value.DoubleValue
-61.181

@<SCITEGIC>MOL_PROPERTY
W(PB)
SciTegic.value.DoubleValue
-63.413

@<SCITEGIC>MOL_PROPERTY
W(SA)
SciTegic.value.DoubleValue
2.232

@<SCITEGIC>MOL_PROPERTY
Valence
SciTegic.value.DoubleValue
8.479

@<SCITEGIC>MOL_PROPERTY
Coulomb
SciTegic.value.DoubleValue
-0.357

@<SCITEGIC>MOL_PROPERTY
VdW
SciTegic.value.DoubleValue
0.753

@<SCITEGIC>MOL_PROPERTY
VdW6
SciTegic.value.DoubleValue
-9.081

@<SCITEGIC>MOL_PROPERTY
VdW12
SciTegic.value.DoubleValue
9.833

@<SCITEGIC>MOL_PROPERTY
Bond
SciTegic.value.DoubleValue
0.221

@<SCITEGIC>MOL_PROPERTY
Angle
SciTegic.value.DoubleValue
3.208

@<SCITEGIC>MOL_PROPERTY
Pdih
SciTegic.value.DoubleValue
5.050

@<SCITEGIC>MOL_PROPERTY
Idih
SciTegic.value.DoubleValue
0.000

@<SCITEGIC>MOL_PROPERTY
Tether
SciTegic.value.DoubleValue
0.000

@<TRIPOS>MOLECULE
guest-s21_confgen4.mol2 : confsearch ligand conformer 161
          22          21           1
SMALL
USER_CHARGES
 
@<TRIPOS>ATOM
       1    C1      22.985086   17.177287   20.338092 C.2        1 MOL1         0.6145
       2    O1      23.735101   17.415511   21.264983 O.co2      1 MOL1        -0.6735
       3    O2      23.336937   16.591237   19.333767 O.co2      1 MOL1        -0.6735
       4    C2      21.523965   17.623925   20.409957 C.3        1 MOL1        -0.1985
       5    H1      20.902178   16.729353   20.287109 H          1 MOL1         0.0740
       6    H2      21.335659   18.267269   19.542422 H          1 MOL1         0.0740
       7    C3      21.121672   18.367476   21.711380 C.3        1 MOL1        -0.1882
       8    H3      21.318680   17.719819   22.576953 H          1 MOL1         0.0742
       9    H4      21.752418   19.259227   21.831505 H          1 MOL1         0.0742
      10    C4      19.633962   18.781120   21.699965 C.3        1 MOL1        -0.1880
      11    H5      19.005415   17.888029   21.579771 H          1 MOL1         0.0742
      12    H6      19.439414   19.428375   20.833742 H          1 MOL1         0.0742
      13    C5      19.235944   19.520650   22.995335 C.3        1 MOL1        -0.1880
      14    H7      19.430373   18.873789   23.861877 H          1 MOL1         0.0742
      15    H8      19.864228   20.413869   23.115943 H          1 MOL1         0.0742
      16    C6      17.749362   19.934249   22.984636 C.3        1 MOL1        -0.1856
      17    H9      17.117622   19.042984   22.866201 H          1 MOL1         0.0742
      18    H10     17.551479   20.583096   22.120162 H          1 MOL1         0.0742
      19    C7      17.355937   20.672486   24.279842 C.3        1 MOL1        -0.2871
      20    H11     17.514211   20.034426   25.159180 H          1 MOL1         0.0754
      21    H12     16.296502   20.958996   24.255286 H          1 MOL1         0.0754
      22    H13     17.951263   21.586102   24.407515 H          1 MOL1         0.0754
@<TRIPOS>BOND
    1     1     2    1
    2     1     3    2
    3     1     4    1
    4     4     5    1
    5     4     6    1
    6     4     7    1
    7     7     8    1
    8     7     9    1
    9     7    10    1
   10    10    11    1
   11    10    12    1
   12    10    13    1
   13    13    14    1
   14    13    15    1
   15    13    16    1
   16    16    17    1
   17    16    18    1
   18    16    19    1
   19    19    20    1
   20    19    21    1
   21    19    22    1
@<TRIPOS>SUBSTRUCTURE
       1 MOL1            1 RESIDUE      1      MOL     
@<SCITEGIC>MOL_PROPERTY
VConf Rank
SciTegic.value.IntegerValue
161

@<SCITEGIC>MOL_PROPERTY
Conf_Id
SciTegic.value.IntegerValue
0

@<SCITEGIC>MOL_PROPERTY
Delta U+W
SciTegic.value.DoubleValue
0.000

@<SCITEGIC>MOL_PROPERTY
U+W
SciTegic.value.DoubleValue
-53.159

@<SCITEGIC>MOL_PROPERTY
Grad RMS
SciTegic.value.DoubleValue
0.000000

@<SCITEGIC>MOL_PROPERTY
U
SciTegic.value.DoubleValue
6.763

@<SCITEGIC>MOL_PROPERTY
W
SciTegic.value.DoubleValue
-59.922

@<SCITEGIC>MOL_PROPERTY
W(PB)
SciTegic.value.DoubleValue
-62.256

@<SCITEGIC>MOL_PROPERTY
W(SA)
SciTegic.value.DoubleValue
2.334

@<SCITEGIC>MOL_PROPERTY
Valence
SciTegic.value.DoubleValue
7.600

@<SCITEGIC>MOL_PROPERTY
Coulomb
SciTegic.value.DoubleValue
-2.139

@<SCITEGIC>MOL_PROPERTY
VdW
SciTegic.value.DoubleValue
1.302

@<SCITEGIC>MOL_PROPERTY
VdW6
SciTegic.value.DoubleValue
-6.786

@<SCITEGIC>MOL_PROPERTY
VdW12
SciTegic.value.DoubleValue
8.088

@<SCITEGIC>MOL_PROPERTY
Bond
SciTegic.value.DoubleValue
0.134

@<SCITEGIC>MOL_PROPERTY
Angle
SciTegic.value.DoubleValue
2.720

@<SCITEGIC>MOL_PROPERTY
Pdih
SciTegic.value.DoubleValue
4.746

@<SCITEGIC>MOL_PROPERTY
Idih
SciTegic.value.DoubleValue
0.000

@<SCITEGIC>MOL_PROPERTY
Tether
SciTegic.value.DoubleValue
0.000

@<TRIPOS>MOLECULE
guest-s21_confgen4.mol2 : confsearch ligand conformer 162
          22          21           1
SMALL
USER_CHARGES
 
@<TRIPOS>ATOM
       1    C1      21.175940   20.679266   18.791337 C.2        1 MOL1         0.6145
       2    O1      20.396119   20.645316   17.860123 O.co2      1 MOL1        -0.6735
       3    O2      22.382798   20.625321   18.660901 O.co2      1 MOL1        -0.6735
       4    C2      20.607859   20.772133   20.203028 C.3        1 MOL1        -0.1985
       5    H1      19.679577   21.354396   20.159143 H          1 MOL1         0.0740
       6    H2      21.316858   21.338255   20.819054 H          1 MOL1         0.0740
       7    C3      20.339083   19.384606   20.835939 C.3        1 MOL1        -0.1882
       8    H3      19.637934   18.825663   20.200687 H          1 MOL1         0.0742
       9    H4      21.275164   18.809523   20.860579 H          1 MOL1         0.0742
      10    C4      19.764698   19.505705   22.263978 C.3        1 MOL1        -0.1880
      11    H5      18.829741   20.082111   22.235959 H          1 MOL1         0.0742
      12    H6      20.467378   20.066008   22.896017 H          1 MOL1         0.0742
      13    C5      19.497826   18.121056   22.892326 C.3        1 MOL1        -0.1880
      14    H7      18.795186   17.560428   22.260567 H          1 MOL1         0.0742
      15    H8      20.432551   17.544324   22.920517 H          1 MOL1         0.0742
      16    C6      18.923741   18.241250   24.319579 C.3        1 MOL1        -0.1856
      17    H9      17.987458   18.815928   24.295191 H          1 MOL1         0.0742
      18    H10     19.624817   18.799840   24.955146 H          1 MOL1         0.0742
      19    C7      18.658631   16.856435   24.943553 C.3        1 MOL1        -0.2871
      20    H11     19.585315   16.271341   25.009351 H          1 MOL1         0.0754
      21    H12     17.935717   16.287487   24.344303 H          1 MOL1         0.0754
      22    H13     18.250888   16.960588   25.957452 H          1 MOL1         0.0754
@<TRIPOS>BOND
    1     1     2    1
    2     1     3    2
    3     1     4    1
    4     4     5    1
    5     4     6    1
    6     4     7    1
    7     7     8    1
    8     7     9    1
    9     7    10    1
   10    10    11    1
   11    10    12    1
   12    10    13    1
   13    13    14    1
   14    13    15    1
   15    13    16    1
   16    16    17    1
   17    16    18    1
   18    16    19    1
   19    19    20    1
   20    19    21    1
   21    19    22    1
@<TRIPOS>SUBSTRUCTURE
       1 MOL1            1 RESIDUE      1      MOL     
@<SCITEGIC>MOL_PROPERTY
VConf Rank
SciTegic.value.IntegerValue
162

@<SCITEGIC>MOL_PROPERTY
Conf_Id
SciTegic.value.IntegerValue
10

@<SCITEGIC>MOL_PROPERTY
Delta U+W
SciTegic.value.DoubleValue
-1.291

@<SCITEGIC>MOL_PROPERTY
U+W
SciTegic.value.DoubleValue
-54.451

@<SCITEGIC>MOL_PROPERTY
Grad RMS
SciTegic.value.DoubleValue
0.000000

@<SCITEGIC>MOL_PROPERTY
U
SciTegic.value.DoubleValue
5.779

@<SCITEGIC>MOL_PROPERTY
W
SciTegic.value.DoubleValue
-60.230

@<SCITEGIC>MOL_PROPERTY
W(PB)
SciTegic.value.DoubleValue
-62.557

@<SCITEGIC>MOL_PROPERTY
W(SA)
SciTegic.value.DoubleValue
2.328

@<SCITEGIC>MOL_PROPERTY
Valence
SciTegic.value.DoubleValue
7.101

@<SCITEGIC>MOL_PROPERTY
Coulomb
SciTegic.value.DoubleValue
-2.079

@<SCITEGIC>MOL_PROPERTY
VdW
SciTegic.value.DoubleValue
0.757

@<SCITEGIC>MOL_PROPERTY
VdW6
SciTegic.value.DoubleValue
-6.496

@<SCITEGIC>MOL_PROPERTY
VdW12
SciTegic.value.DoubleValue
7.253

@<SCITEGIC>MOL_PROPERTY
Bond
SciTegic.value.DoubleValue
0.100

@<SCITEGIC>MOL_PROPERTY
Angle
SciTegic.value.DoubleValue
2.262

@<SCITEGIC>MOL_PROPERTY
Pdih
SciTegic.value.DoubleValue
4.738

@<SCITEGIC>MOL_PROPERTY
Idih
SciTegic.value.DoubleValue
0.001

@<SCITEGIC>MOL_PROPERTY
Tether
SciTegic.value.DoubleValue
0.000

@<TRIPOS>MOLECULE
guest-s21_confgen4.mol2 : confsearch ligand conformer 163
          22          21           1
SMALL
USER_CHARGES
 
@<TRIPOS>ATOM
       1    C1      19.156393   19.121553   18.395734 C.2        1 MOL1         0.6145
       2    O1      18.127827   19.716538   18.141774 O.co2      1 MOL1        -0.6735
       3    O2      20.096306   19.044899   17.629481 O.co2      1 MOL1        -0.6735
       4    C2      19.282849   18.451932   19.759488 C.3        1 MOL1        -0.1985
       5    H1      19.907842   17.558274   19.643712 H          1 MOL1         0.0740
       6    H2      18.286077   18.112913   20.066358 H          1 MOL1         0.0740
       7    C3      19.883869   19.388502   20.836412 C.3        1 MOL1        -0.1882
       8    H3      20.875475   19.729448   20.507801 H          1 MOL1         0.0742
       9    H4      19.253816   20.283801   20.931405 H          1 MOL1         0.0742
      10    C4      20.001346   18.687455   22.207206 C.3        1 MOL1        -0.1880
      11    H5      20.633318   17.794174   22.109662 H          1 MOL1         0.0742
      12    H6      19.007145   18.344861   22.522424 H          1 MOL1         0.0742
      13    C5      20.598345   19.627634   23.279547 C.3        1 MOL1        -0.1880
      14    H7      21.559913   20.017073   22.918082 H          1 MOL1         0.0742
      15    H8      19.941768   20.497820   23.415996 H          1 MOL1         0.0742
      16    C6      20.830290   18.936110   24.643110 C.3        1 MOL1        -0.1856
      17    H9      21.361040   19.633288   25.306045 H          1 MOL1         0.0742
      18    H10     21.491836   18.068717   24.511593 H          1 MOL1         0.0742
      19    C7      19.522566   18.492051   25.333675 C.3        1 MOL1        -0.2871
      20    H11     19.733783   18.089626   26.332855 H          1 MOL1         0.0754
      21    H12     19.013324   17.707133   24.760717 H          1 MOL1         0.0754
      22    H13     18.832294   19.337843   25.448976 H          1 MOL1         0.0754
@<TRIPOS>BOND
    1     1     2    1
    2     1     3    2
    3     1     4    1
    4     4     5    1
    5     4     6    1
    6     4     7    1
    7     7     8    1
    8     7     9    1
    9     7    10    1
   10    10    11    1
   11    10    12    1
   12    10    13    1
   13    13    14    1
   14    13    15    1
   15    13    16    1
   16    16    17    1
   17    16    18    1
   18    16    19    1
   19    19    20    1
   20    19    21    1
   21    19    22    1
@<TRIPOS>SUBSTRUCTURE
       1 MOL1            1 RESIDUE      1      MOL     
@<SCITEGIC>MOL_PROPERTY
VConf Rank
SciTegic.value.IntegerValue
163

@<SCITEGIC>MOL_PROPERTY
Conf_Id
SciTegic.value.IntegerValue
37

@<SCITEGIC>MOL_PROPERTY
Delta U+W
SciTegic.value.DoubleValue
-0.345

@<SCITEGIC>MOL_PROPERTY
U+W
SciTegic.value.DoubleValue
-53.504

@<SCITEGIC>MOL_PROPERTY
Grad RMS
SciTegic.value.DoubleValue
0.000000

@<SCITEGIC>MOL_PROPERTY
U
SciTegic.value.DoubleValue
6.751

@<SCITEGIC>MOL_PROPERTY
W
SciTegic.value.DoubleValue
-60.255

@<SCITEGIC>MOL_PROPERTY
W(PB)
SciTegic.value.DoubleValue
-62.592

@<SCITEGIC>MOL_PROPERTY
W(SA)
SciTegic.value.DoubleValue
2.336

@<SCITEGIC>MOL_PROPERTY
Valence
SciTegic.value.DoubleValue
7.602

@<SCITEGIC>MOL_PROPERTY
Coulomb
SciTegic.value.DoubleValue
-1.744

@<SCITEGIC>MOL_PROPERTY
VdW
SciTegic.value.DoubleValue
0.894

@<SCITEGIC>MOL_PROPERTY
VdW6
SciTegic.value.DoubleValue
-7.110

@<SCITEGIC>MOL_PROPERTY
VdW12
SciTegic.value.DoubleValue
8.004

@<SCITEGIC>MOL_PROPERTY
Bond
SciTegic.value.DoubleValue
0.131

@<SCITEGIC>MOL_PROPERTY
Angle
SciTegic.value.DoubleValue
2.489

@<SCITEGIC>MOL_PROPERTY
Pdih
SciTegic.value.DoubleValue
4.982

@<SCITEGIC>MOL_PROPERTY
Idih
SciTegic.value.DoubleValue
0.001

@<SCITEGIC>MOL_PROPERTY
Tether
SciTegic.value.DoubleValue
0.000

@<TRIPOS>MOLECULE
guest-s21_confgen4.mol2 : confsearch ligand conformer 164
          22          21           1
SMALL
USER_CHARGES
 
@<TRIPOS>ATOM
       1    C1      18.832575   21.166213   19.125755 C.2        1 MOL1         0.6145
       2    O1      19.279168   20.725001   18.085400 O.co2      1 MOL1        -0.6735
       3    O2      18.582487   22.341555   19.305987 O.co2      1 MOL1        -0.6735
       4    C2      18.593131   20.194607   20.275912 C.3        1 MOL1        -0.1985
       5    H1      18.310081   19.224773   19.849341 H          1 MOL1         0.0740
       6    H2      17.735217   20.556861   20.855048 H          1 MOL1         0.0740
       7    C3      19.828946   20.033937   21.195207 C.3        1 MOL1        -0.1882
       8    H3      20.682120   19.682640   20.598354 H          1 MOL1         0.0742
       9    H4      20.107413   21.015555   21.603120 H          1 MOL1         0.0742
      10    C4      19.560989   19.045873   22.351182 C.3        1 MOL1        -0.1880
      11    H5      19.276825   18.071447   21.932957 H          1 MOL1         0.0742
      12    H6      18.709179   19.400709   22.947309 H          1 MOL1         0.0742
      13    C5      20.798804   18.886048   23.263614 C.3        1 MOL1        -0.1880
      14    H7      21.638576   18.482967   22.681167 H          1 MOL1         0.0742
      15    H8      21.112852   19.877760   23.616908 H          1 MOL1         0.0742
      16    C6      20.543359   17.984933   24.494082 C.3        1 MOL1        -0.1856
      17    H9      19.708016   18.388637   25.082754 H          1 MOL1         0.0742
      18    H10     21.427293   18.019509   25.145772 H          1 MOL1         0.0742
      19    C7      20.255450   16.513493   24.125055 C.3        1 MOL1        -0.2871
      20    H11     21.064011   16.097143   23.510224 H          1 MOL1         0.0754
      21    H12     19.314648   16.416467   23.569014 H          1 MOL1         0.0754
      22    H13     20.170088   15.900221   25.031439 H          1 MOL1         0.0754
@<TRIPOS>BOND
    1     1     2    1
    2     1     3    2
    3     1     4    1
    4     4     5    1
    5     4     6    1
    6     4     7    1
    7     7     8    1
    8     7     9    1
    9     7    10    1
   10    10    11    1
   11    10    12    1
   12    10    13    1
   13    13    14    1
   14    13    15    1
   15    13    16    1
   16    16    17    1
   17    16    18    1
   18    16    19    1
   19    19    20    1
   20    19    21    1
   21    19    22    1
@<TRIPOS>SUBSTRUCTURE
       1 MOL1            1 RESIDUE      1      MOL     
@<SCITEGIC>MOL_PROPERTY
VConf Rank
SciTegic.value.IntegerValue
164

@<SCITEGIC>MOL_PROPERTY
Conf_Id
SciTegic.value.IntegerValue
38

@<SCITEGIC>MOL_PROPERTY
Delta U+W
SciTegic.value.DoubleValue
-0.439

@<SCITEGIC>MOL_PROPERTY
U+W
SciTegic.value.DoubleValue
-53.598

@<SCITEGIC>MOL_PROPERTY
Grad RMS
SciTegic.value.DoubleValue
0.000000

@<SCITEGIC>MOL_PROPERTY
U
SciTegic.value.DoubleValue
6.751

@<SCITEGIC>MOL_PROPERTY
W
SciTegic.value.DoubleValue
-60.350

@<SCITEGIC>MOL_PROPERTY
W(PB)
SciTegic.value.DoubleValue
-62.659

@<SCITEGIC>MOL_PROPERTY
W(SA)
SciTegic.value.DoubleValue
2.309

@<SCITEGIC>MOL_PROPERTY
Valence
SciTegic.value.DoubleValue
7.602

@<SCITEGIC>MOL_PROPERTY
Coulomb
SciTegic.value.DoubleValue
-1.744

@<SCITEGIC>MOL_PROPERTY
VdW
SciTegic.value.DoubleValue
0.893

@<SCITEGIC>MOL_PROPERTY
VdW6
SciTegic.value.DoubleValue
-7.110

@<SCITEGIC>MOL_PROPERTY
VdW12
SciTegic.value.DoubleValue
8.004

@<SCITEGIC>MOL_PROPERTY
Bond
SciTegic.value.DoubleValue
0.131

@<SCITEGIC>MOL_PROPERTY
Angle
SciTegic.value.DoubleValue
2.489

@<SCITEGIC>MOL_PROPERTY
Pdih
SciTegic.value.DoubleValue
4.981

@<SCITEGIC>MOL_PROPERTY
Idih
SciTegic.value.DoubleValue
0.001

@<SCITEGIC>MOL_PROPERTY
Tether
SciTegic.value.DoubleValue
0.000

@<TRIPOS>MOLECULE
guest-s21_confgen4.mol2 : confsearch ligand conformer 165
          22          21           1
SMALL
USER_CHARGES
 
@<TRIPOS>ATOM
       1    C1      17.302927   16.814043   23.894497 C.2        1 MOL1         0.6145
       2    O1      17.058898   16.847366   25.084413 O.co2      1 MOL1        -0.6735
       3    O2      17.040089   15.866840   23.180177 O.co2      1 MOL1        -0.6735
       4    C2      17.997588   18.017891   23.268010 C.3        1 MOL1        -0.1985
       5    H1      17.674053   18.915947   23.807674 H          1 MOL1         0.0740
       6    H2      17.637783   18.110025   22.237228 H          1 MOL1         0.0740
       7    C3      19.543899   17.901917   23.300894 C.3        1 MOL1        -0.1882
       8    H3      19.859659   17.713121   24.336316 H          1 MOL1         0.0742
       9    H4      19.859461   17.026624   22.716447 H          1 MOL1         0.0742
      10    C4      20.272575   19.165878   22.784990 C.3        1 MOL1        -0.1880
      11    H5      21.345411   19.042506   22.980257 H          1 MOL1         0.0742
      12    H6      19.948587   20.040199   23.365733 H          1 MOL1         0.0742
      13    C5      20.051900   19.430141   21.275193 C.3        1 MOL1        -0.1880
      14    H7      20.374271   18.555031   20.694709 H          1 MOL1         0.0742
      15    H8      18.979730   19.556738   21.078962 H          1 MOL1         0.0742
      16    C6      20.783944   20.691041   20.759093 C.3        1 MOL1        -0.1856
      17    H9      20.472752   21.566970   21.344926 H          1 MOL1         0.0742
      18    H10     20.467521   20.882024   19.724372 H          1 MOL1         0.0742
      19    C7      22.322630   20.564008   20.790108 C.3        1 MOL1        -0.2871
      20    H11     22.699394   20.493458   21.817968 H          1 MOL1         0.0754
      21    H12     22.789173   21.442515   20.325908 H          1 MOL1         0.0754
      22    H13     22.654714   19.674555   20.239000 H          1 MOL1         0.0754
@<TRIPOS>BOND
    1     1     2    1
    2     1     3    2
    3     1     4    1
    4     4     5    1
    5     4     6    1
    6     4     7    1
    7     7     8    1
    8     7     9    1
    9     7    10    1
   10    10    11    1
   11    10    12    1
   12    10    13    1
   13    13    14    1
   14    13    15    1
   15    13    16    1
   16    16    17    1
   17    16    18    1
   18    16    19    1
   19    19    20    1
   20    19    21    1
   21    19    22    1
@<TRIPOS>SUBSTRUCTURE
       1 MOL1            1 RESIDUE      1      MOL     
@<SCITEGIC>MOL_PROPERTY
VConf Rank
SciTegic.value.IntegerValue
165

@<SCITEGIC>MOL_PROPERTY
Conf_Id
SciTegic.value.IntegerValue
60

@<SCITEGIC>MOL_PROPERTY
Delta U+W
SciTegic.value.DoubleValue
0.386

@<SCITEGIC>MOL_PROPERTY
U+W
SciTegic.value.DoubleValue
-52.773

@<SCITEGIC>MOL_PROPERTY
Grad RMS
SciTegic.value.DoubleValue
0.000000

@<SCITEGIC>MOL_PROPERTY
U
SciTegic.value.DoubleValue
7.689

@<SCITEGIC>MOL_PROPERTY
W
SciTegic.value.DoubleValue
-60.463

@<SCITEGIC>MOL_PROPERTY
W(PB)
SciTegic.value.DoubleValue
-62.772

@<SCITEGIC>MOL_PROPERTY
W(SA)
SciTegic.value.DoubleValue
2.309

@<SCITEGIC>MOL_PROPERTY
Valence
SciTegic.value.DoubleValue
8.197

@<SCITEGIC>MOL_PROPERTY
Coulomb
SciTegic.value.DoubleValue
-1.561

@<SCITEGIC>MOL_PROPERTY
VdW
SciTegic.value.DoubleValue
1.053

@<SCITEGIC>MOL_PROPERTY
VdW6
SciTegic.value.DoubleValue
-7.737

@<SCITEGIC>MOL_PROPERTY
VdW12
SciTegic.value.DoubleValue
8.790

@<SCITEGIC>MOL_PROPERTY
Bond
SciTegic.value.DoubleValue
0.181

@<SCITEGIC>MOL_PROPERTY
Angle
SciTegic.value.DoubleValue
2.780

@<SCITEGIC>MOL_PROPERTY
Pdih
SciTegic.value.DoubleValue
5.235

@<SCITEGIC>MOL_PROPERTY
Idih
SciTegic.value.DoubleValue
0.001

@<SCITEGIC>MOL_PROPERTY
Tether
SciTegic.value.DoubleValue
0.000

@<TRIPOS>MOLECULE
guest-s21_confgen4.mol2 : confsearch ligand conformer 166
          22          21           1
SMALL
USER_CHARGES
 
@<TRIPOS>ATOM
       1    C1      16.986091   20.612282   24.020144 C.2        1 MOL1         0.6145
       2    O1      16.204388   19.776471   24.428671 O.co2      1 MOL1        -0.6735
       3    O2      16.706884   21.787709   23.889851 O.co2      1 MOL1        -0.6735
       4    C2      18.387370   20.157369   23.628024 C.3        1 MOL1        -0.1985
       5    H1      18.666255   19.330925   24.291105 H          1 MOL1         0.0740
       6    H2      19.080942   20.983096   23.826892 H          1 MOL1         0.0740
       7    C3      18.483131   19.724369   22.141769 C.3        1 MOL1        -0.1882
       8    H3      17.820874   18.865478   21.965647 H          1 MOL1         0.0742
       9    H4      18.103912   20.541863   21.513006 H          1 MOL1         0.0742
      10    C4      19.921244   19.378026   21.687238 C.3        1 MOL1        -0.1880
      11    H5      20.582212   20.235676   21.872239 H          1 MOL1         0.0742
      12    H6      19.906117   19.225251   20.600611 H          1 MOL1         0.0742
      13    C5      20.497065   18.116168   22.375832 C.3        1 MOL1        -0.1880
      14    H7      20.515713   18.268780   23.462313 H          1 MOL1         0.0742
      15    H8      19.835006   17.259017   22.192335 H          1 MOL1         0.0742
      16    C6      21.932694   17.767823   21.917861 C.3        1 MOL1        -0.1856
      17    H9      22.313880   16.951902   22.547318 H          1 MOL1         0.0742
      18    H10     22.595847   18.626999   22.089148 H          1 MOL1         0.0742
      19    C7      22.016974   17.331953   20.438818 C.3        1 MOL1        -0.2871
      20    H11     21.335625   16.495387   20.236220 H          1 MOL1         0.0754
      21    H12     23.035582   17.004898   20.193073 H          1 MOL1         0.0754
      22    H13     21.761647   18.156438   19.761723 H          1 MOL1         0.0754
@<TRIPOS>BOND
    1     1     2    1
    2     1     3    2
    3     1     4    1
    4     4     5    1
    5     4     6    1
    6     4     7    1
    7     7     8    1
    8     7     9    1
    9     7    10    1
   10    10    11    1
   11    10    12    1
   12    10    13    1
   13    13    14    1
   14    13    15    1
   15    13    16    1
   16    16    17    1
   17    16    18    1
   18    16    19    1
   19    19    20    1
   20    19    21    1
   21    19    22    1
@<TRIPOS>SUBSTRUCTURE
       1 MOL1            1 RESIDUE      1      MOL     
@<SCITEGIC>MOL_PROPERTY
VConf Rank
SciTegic.value.IntegerValue
166

@<SCITEGIC>MOL_PROPERTY
Conf_Id
SciTegic.value.IntegerValue
28

@<SCITEGIC>MOL_PROPERTY
Delta U+W
SciTegic.value.DoubleValue
0.351

@<SCITEGIC>MOL_PROPERTY
U+W
SciTegic.value.DoubleValue
-52.808

@<SCITEGIC>MOL_PROPERTY
Grad RMS
SciTegic.value.DoubleValue
0.000000

@<SCITEGIC>MOL_PROPERTY
U
SciTegic.value.DoubleValue
7.689

@<SCITEGIC>MOL_PROPERTY
W
SciTegic.value.DoubleValue
-60.498

@<SCITEGIC>MOL_PROPERTY
W(PB)
SciTegic.value.DoubleValue
-62.768

@<SCITEGIC>MOL_PROPERTY
W(SA)
SciTegic.value.DoubleValue
2.270

@<SCITEGIC>MOL_PROPERTY
Valence
SciTegic.value.DoubleValue
8.197

@<SCITEGIC>MOL_PROPERTY
Coulomb
SciTegic.value.DoubleValue
-1.561

@<SCITEGIC>MOL_PROPERTY
VdW
SciTegic.value.DoubleValue
1.053

@<SCITEGIC>MOL_PROPERTY
VdW6
SciTegic.value.DoubleValue
-7.737

@<SCITEGIC>MOL_PROPERTY
VdW12
SciTegic.value.DoubleValue
8.791

@<SCITEGIC>MOL_PROPERTY
Bond
SciTegic.value.DoubleValue
0.181

@<SCITEGIC>MOL_PROPERTY
Angle
SciTegic.value.DoubleValue
2.780

@<SCITEGIC>MOL_PROPERTY
Pdih
SciTegic.value.DoubleValue
5.235

@<SCITEGIC>MOL_PROPERTY
Idih
SciTegic.value.DoubleValue
0.001

@<SCITEGIC>MOL_PROPERTY
Tether
SciTegic.value.DoubleValue
0.000

@<TRIPOS>MOLECULE
guest-s21_confgen4.mol2 : confsearch ligand conformer 167
          22          21           1
SMALL
USER_CHARGES
 
@<TRIPOS>ATOM
       1    C1      23.157736   17.409397   21.156532 C.2        1 MOL1         0.6145
       2    O1      24.113439   17.568269   21.889923 O.co2      1 MOL1        -0.6735
       3    O2      22.908615   16.362131   20.592946 O.co2      1 MOL1        -0.6735
       4    C2      22.207548   18.583210   20.947663 C.3        1 MOL1        -0.1985
       5    H1      21.799052   18.514494   19.932252 H          1 MOL1         0.0740
       6    H2      22.793298   19.508846   20.999717 H          1 MOL1         0.0740
       7    C3      21.057739   18.618278   21.984483 C.3        1 MOL1        -0.1882
       8    H3      20.499623   17.674528   21.926946 H          1 MOL1         0.0742
       9    H4      21.483095   18.678106   22.995817 H          1 MOL1         0.0742
      10    C4      20.107552   19.814761   21.746500 C.3        1 MOL1        -0.1880
      11    H5      19.641658   19.726888   20.755435 H          1 MOL1         0.0742
      12    H6      20.697441   20.741460   21.731601 H          1 MOL1         0.0742
      13    C5      19.007291   19.952077   22.825449 C.3        1 MOL1        -0.1880
      14    H7      19.472857   20.044057   23.816266 H          1 MOL1         0.0742
      15    H8      18.463011   20.890100   22.649947 H          1 MOL1         0.0742
      16    C6      17.998961   18.780951   22.830342 C.3        1 MOL1        -0.1856
      17    H9      18.510132   17.842363   23.081572 H          1 MOL1         0.0742
      18    H10     17.572148   18.655085   21.825755 H          1 MOL1         0.0742
      19    C7      16.861376   19.018726   23.843790 C.3        1 MOL1        -0.2871
      20    H11     16.302060   19.931540   23.600290 H          1 MOL1         0.0754
      21    H12     17.258273   19.121007   24.862317 H          1 MOL1         0.0754
      22    H13     16.155990   18.177618   23.837745 H          1 MOL1         0.0754
@<TRIPOS>BOND
    1     1     2    1
    2     1     3    2
    3     1     4    1
    4     4     5    1
    5     4     6    1
    6     4     7    1
    7     7     8    1
    8     7     9    1
    9     7    10    1
   10    10    11    1
   11    10    12    1
   12    10    13    1
   13    13    14    1
   14    13    15    1
   15    13    16    1
   16    16    17    1
   17    16    18    1
   18    16    19    1
   19    19    20    1
   20    19    21    1
   21    19    22    1
@<TRIPOS>SUBSTRUCTURE
       1 MOL1            1 RESIDUE      1      MOL     
@<SCITEGIC>MOL_PROPERTY
VConf Rank
SciTegic.value.IntegerValue
167

@<SCITEGIC>MOL_PROPERTY
Conf_Id
SciTegic.value.IntegerValue
50

@<SCITEGIC>MOL_PROPERTY
Delta U+W
SciTegic.value.DoubleValue
-0.486

@<SCITEGIC>MOL_PROPERTY
U+W
SciTegic.value.DoubleValue
-53.646

@<SCITEGIC>MOL_PROPERTY
Grad RMS
SciTegic.value.DoubleValue
0.000000

@<SCITEGIC>MOL_PROPERTY
U
SciTegic.value.DoubleValue
7.026

@<SCITEGIC>MOL_PROPERTY
W
SciTegic.value.DoubleValue
-60.672

@<SCITEGIC>MOL_PROPERTY
W(PB)
SciTegic.value.DoubleValue
-62.964

@<SCITEGIC>MOL_PROPERTY
W(SA)
SciTegic.value.DoubleValue
2.292

@<SCITEGIC>MOL_PROPERTY
Valence
SciTegic.value.DoubleValue
7.637

@<SCITEGIC>MOL_PROPERTY
Coulomb
SciTegic.value.DoubleValue
-1.488

@<SCITEGIC>MOL_PROPERTY
VdW
SciTegic.value.DoubleValue
0.877

@<SCITEGIC>MOL_PROPERTY
VdW6
SciTegic.value.DoubleValue
-7.165

@<SCITEGIC>MOL_PROPERTY
VdW12
SciTegic.value.DoubleValue
8.043

@<SCITEGIC>MOL_PROPERTY
Bond
SciTegic.value.DoubleValue
0.134

@<SCITEGIC>MOL_PROPERTY
Angle
SciTegic.value.DoubleValue
2.513

@<SCITEGIC>MOL_PROPERTY
Pdih
SciTegic.value.DoubleValue
4.990

@<SCITEGIC>MOL_PROPERTY
Idih
SciTegic.value.DoubleValue
0.001

@<SCITEGIC>MOL_PROPERTY
Tether
SciTegic.value.DoubleValue
0.000

@<TRIPOS>MOLECULE
guest-s21_confgen4.mol2 : confsearch ligand conformer 168
          22          21           1
SMALL
USER_CHARGES
 
@<TRIPOS>ATOM
       1    C1      22.056238   21.945560   22.439882 C.2        1 MOL1         0.6145
       2    O1      22.064728   22.576290   23.478428 O.co2      1 MOL1        -0.6735
       3    O2      22.081730   22.460417   21.339551 O.co2      1 MOL1        -0.6735
       4    C2      21.989256   20.424661   22.521782 C.3        1 MOL1        -0.1985
       5    H1      22.522171   20.108638   23.426629 H          1 MOL1         0.0740
       6    H2      22.534231   20.012841   21.663845 H          1 MOL1         0.0740
       7    C3      20.537233   19.886529   22.540213 C.3        1 MOL1        -0.1882
       8    H3      20.002612   20.314901   23.399271 H          1 MOL1         0.0742
       9    H4      20.019533   20.232266   21.635823 H          1 MOL1         0.0742
      10    C4      20.499012   18.342701   22.618964 C.3        1 MOL1        -0.1880
      11    H5      21.086782   18.015019   23.487361 H          1 MOL1         0.0742
      12    H6      20.987606   17.913998   21.733256 H          1 MOL1         0.0742
      13    C5      19.068834   17.767524   22.750577 C.3        1 MOL1        -0.1880
      14    H7      19.143715   16.685612   22.926036 H          1 MOL1         0.0742
      15    H8      18.581283   18.192956   23.638403 H          1 MOL1         0.0742
      16    C6      18.188307   18.013403   21.504581 C.3        1 MOL1        -0.1856
      17    H9      18.699701   17.635003   20.608760 H          1 MOL1         0.0742
      18    H10     18.035286   19.090338   21.355729 H          1 MOL1         0.0742
      19    C7      16.814568   17.325954   21.638639 C.3        1 MOL1        -0.2871
      20    H11     16.269172   17.706088   22.512381 H          1 MOL1         0.0754
      21    H12     16.927584   16.239666   21.750730 H          1 MOL1         0.0754
      22    H13     16.200283   17.512392   20.748154 H          1 MOL1         0.0754
@<TRIPOS>BOND
    1     1     2    1
    2     1     3    2
    3     1     4    1
    4     4     5    1
    5     4     6    1
    6     4     7    1
    7     7     8    1
    8     7     9    1
    9     7    10    1
   10    10    11    1
   11    10    12    1
   12    10    13    1
   13    13    14    1
   14    13    15    1
   15    13    16    1
   16    16    17    1
   17    16    18    1
   18    16    19    1
   19    19    20    1
   20    19    21    1
   21    19    22    1
@<TRIPOS>SUBSTRUCTURE
       1 MOL1            1 RESIDUE      1      MOL     
@<SCITEGIC>MOL_PROPERTY
VConf Rank
SciTegic.value.IntegerValue
168

@<SCITEGIC>MOL_PROPERTY
Conf_Id
SciTegic.value.IntegerValue
51

@<SCITEGIC>MOL_PROPERTY
Delta U+W
SciTegic.value.DoubleValue
-0.517

@<SCITEGIC>MOL_PROPERTY
U+W
SciTegic.value.DoubleValue
-53.677

@<SCITEGIC>MOL_PROPERTY
Grad RMS
SciTegic.value.DoubleValue
0.000000

@<SCITEGIC>MOL_PROPERTY
U
SciTegic.value.DoubleValue
7.026

@<SCITEGIC>MOL_PROPERTY
W
SciTegic.value.DoubleValue
-60.703

@<SCITEGIC>MOL_PROPERTY
W(PB)
SciTegic.value.DoubleValue
-63.007

@<SCITEGIC>MOL_PROPERTY
W(SA)
SciTegic.value.DoubleValue
2.304

@<SCITEGIC>MOL_PROPERTY
Valence
SciTegic.value.DoubleValue
7.638

@<SCITEGIC>MOL_PROPERTY
Coulomb
SciTegic.value.DoubleValue
-1.488

@<SCITEGIC>MOL_PROPERTY
VdW
SciTegic.value.DoubleValue
0.877

@<SCITEGIC>MOL_PROPERTY
VdW6
SciTegic.value.DoubleValue
-7.165

@<SCITEGIC>MOL_PROPERTY
VdW12
SciTegic.value.DoubleValue
8.042

@<SCITEGIC>MOL_PROPERTY
Bond
SciTegic.value.DoubleValue
0.134

@<SCITEGIC>MOL_PROPERTY
Angle
SciTegic.value.DoubleValue
2.513

@<SCITEGIC>MOL_PROPERTY
Pdih
SciTegic.value.DoubleValue
4.990

@<SCITEGIC>MOL_PROPERTY
Idih
SciTegic.value.DoubleValue
0.001

@<SCITEGIC>MOL_PROPERTY
Tether
SciTegic.value.DoubleValue
0.000

@<TRIPOS>MOLECULE
guest-s21_confgen4.mol2 : confsearch ligand conformer 169
          22          21           1
SMALL
USER_CHARGES
 
@<TRIPOS>ATOM
       1    C1      19.838800   19.144436   18.900352 C.2        1 MOL1         0.6145
       2    O1      20.935178   19.239249   18.384728 O.co2      1 MOL1        -0.6735
       3    O2      19.068366   18.231107   18.678874 O.co2      1 MOL1        -0.6735
       4    C2      19.400010   20.243578   19.863931 C.3        1 MOL1        -0.1985
       5    H1      18.308592   20.205378   19.965189 H          1 MOL1         0.0740
       6    H2      19.641871   21.205318   19.396385 H          1 MOL1         0.0740
       7    C3      20.070504   20.163197   21.259986 C.3        1 MOL1        -0.1882
       8    H3      21.162841   20.174158   21.140265 H          1 MOL1         0.0742
       9    H4      19.806396   21.061403   21.834455 H          1 MOL1         0.0742
      10    C4      19.643470   18.907591   22.052880 C.3        1 MOL1        -0.1880
      11    H5      19.919944   18.003977   21.492120 H          1 MOL1         0.0742
      12    H6      18.549985   18.894569   22.158414 H          1 MOL1         0.0742
      13    C5      20.297744   18.864096   23.450551 C.3        1 MOL1        -0.1880
      14    H7      21.391189   18.877112   23.344171 H          1 MOL1         0.0742
      15    H8      20.020421   19.765351   24.014368 H          1 MOL1         0.0742
      16    C6      19.872362   17.610051   24.242679 C.3        1 MOL1        -0.1856
      17    H9      20.149827   16.706347   23.682471 H          1 MOL1         0.0742
      18    H10     18.779136   17.594452   24.352562 H          1 MOL1         0.0742
      19    C7      20.528161   17.569726   25.637548 C.3        1 MOL1        -0.2871
      20    H11     21.622939   17.552662   25.556482 H          1 MOL1         0.0754
      21    H12     20.214942   16.672150   26.186490 H          1 MOL1         0.0754
      22    H13     20.241953   18.447517   26.231654 H          1 MOL1         0.0754
@<TRIPOS>BOND
    1     1     2    1
    2     1     3    2
    3     1     4    1
    4     4     5    1
    5     4     6    1
    6     4     7    1
    7     7     8    1
    8     7     9    1
    9     7    10    1
   10    10    11    1
   11    10    12    1
   12    10    13    1
   13    13    14    1
   14    13    15    1
   15    13    16    1
   16    16    17    1
   17    16    18    1
   18    16    19    1
   19    19    20    1
   20    19    21    1
   21    19    22    1
@<TRIPOS>SUBSTRUCTURE
       1 MOL1            1 RESIDUE      1      MOL     
@<SCITEGIC>MOL_PROPERTY
VConf Rank
SciTegic.value.IntegerValue
169

@<SCITEGIC>MOL_PROPERTY
Conf_Id
SciTegic.value.IntegerValue
43

@<SCITEGIC>MOL_PROPERTY
Delta U+W
SciTegic.value.DoubleValue
-0.129

@<SCITEGIC>MOL_PROPERTY
U+W
SciTegic.value.DoubleValue
-53.289

@<SCITEGIC>MOL_PROPERTY
Grad RMS
SciTegic.value.DoubleValue
0.000000

@<SCITEGIC>MOL_PROPERTY
U
SciTegic.value.DoubleValue
7.937

@<SCITEGIC>MOL_PROPERTY
W
SciTegic.value.DoubleValue
-61.225

@<SCITEGIC>MOL_PROPERTY
W(PB)
SciTegic.value.DoubleValue
-63.523

@<SCITEGIC>MOL_PROPERTY
W(SA)
SciTegic.value.DoubleValue
2.297

@<SCITEGIC>MOL_PROPERTY
Valence
SciTegic.value.DoubleValue
7.358

@<SCITEGIC>MOL_PROPERTY
Coulomb
SciTegic.value.DoubleValue
-0.022

@<SCITEGIC>MOL_PROPERTY
VdW
SciTegic.value.DoubleValue
0.601

@<SCITEGIC>MOL_PROPERTY
VdW6
SciTegic.value.DoubleValue
-7.363

@<SCITEGIC>MOL_PROPERTY
VdW12
SciTegic.value.DoubleValue
7.964

@<SCITEGIC>MOL_PROPERTY
Bond
SciTegic.value.DoubleValue
0.121

@<SCITEGIC>MOL_PROPERTY
Angle
SciTegic.value.DoubleValue
2.425

@<SCITEGIC>MOL_PROPERTY
Pdih
SciTegic.value.DoubleValue
4.811

@<SCITEGIC>MOL_PROPERTY
Idih
SciTegic.value.DoubleValue
0.000

@<SCITEGIC>MOL_PROPERTY
Tether
SciTegic.value.DoubleValue
0.000

@<TRIPOS>MOLECULE
guest-s21_confgen4.mol2 : confsearch ligand conformer 170
          22          21           1
SMALL
USER_CHARGES
 
@<TRIPOS>ATOM
       1    C1      21.256646   22.118860   22.933241 C.2        1 MOL1         0.6145
       2    O1      20.472919   23.033634   23.094064 O.co2      1 MOL1        -0.6735
       3    O2      22.068843   22.080269   22.030113 O.co2      1 MOL1        -0.6735
       4    C2      21.229925   20.965255   23.932046 C.3        1 MOL1        -0.1985
       5    H1      21.183894   21.402215   24.936530 H          1 MOL1         0.0740
       6    H2      22.180469   20.422187   23.865356 H          1 MOL1         0.0740
       7    C3      20.040686   19.989250   23.736797 C.3        1 MOL1        -0.1882
       8    H3      20.021761   19.278523   24.574085 H          1 MOL1         0.0742
       9    H4      19.097597   20.551861   23.778105 H          1 MOL1         0.0742
      10    C4      20.125839   19.207350   22.406771 C.3        1 MOL1        -0.1880
      11    H5      21.075919   18.657266   22.364686 H          1 MOL1         0.0742
      12    H6      20.127948   19.911318   21.563070 H          1 MOL1         0.0742
      13    C5      18.949844   18.219815   22.247817 C.3        1 MOL1        -0.1880
      14    H7      18.947276   17.512946   23.088881 H          1 MOL1         0.0742
      15    H8      18.000154   18.770653   22.289960 H          1 MOL1         0.0742
      16    C6      19.033787   17.439150   20.919448 C.3        1 MOL1        -0.1856
      17    H9      19.981881   16.885477   20.874414 H          1 MOL1         0.0742
      18    H10     19.034765   18.143034   20.075617 H          1 MOL1         0.0742
      19    C7      17.857518   16.454485   20.763934 C.3        1 MOL1        -0.2871
      20    H11     17.850936   15.718621   21.578708 H          1 MOL1         0.0754
      21    H12     17.933064   15.908390   19.814641 H          1 MOL1         0.0754
      22    H13     16.896717   16.985678   20.773859 H          1 MOL1         0.0754
@<TRIPOS>BOND
    1     1     2    1
    2     1     3    2
    3     1     4    1
    4     4     5    1
    5     4     6    1
    6     4     7    1
    7     7     8    1
    8     7     9    1
    9     7    10    1
   10    10    11    1
   11    10    12    1
   12    10    13    1
   13    13    14    1
   14    13    15    1
   15    13    16    1
   16    16    17    1
   17    16    18    1
   18    16    19    1
   19    19    20    1
   20    19    21    1
   21    19    22    1
@<TRIPOS>SUBSTRUCTURE
       1 MOL1            1 RESIDUE      1      MOL     
@<SCITEGIC>MOL_PROPERTY
VConf Rank
SciTegic.value.IntegerValue
170

@<SCITEGIC>MOL_PROPERTY
Conf_Id
SciTegic.value.IntegerValue
44

@<SCITEGIC>MOL_PROPERTY
Delta U+W
SciTegic.value.DoubleValue
-0.155

@<SCITEGIC>MOL_PROPERTY
U+W
SciTegic.value.DoubleValue
-53.314

@<SCITEGIC>MOL_PROPERTY
Grad RMS
SciTegic.value.DoubleValue
0.000000

@<SCITEGIC>MOL_PROPERTY
U
SciTegic.value.DoubleValue
7.937

@<SCITEGIC>MOL_PROPERTY
W
SciTegic.value.DoubleValue
-61.252

@<SCITEGIC>MOL_PROPERTY
W(PB)
SciTegic.value.DoubleValue
-63.556

@<SCITEGIC>MOL_PROPERTY
W(SA)
SciTegic.value.DoubleValue
2.304

@<SCITEGIC>MOL_PROPERTY
Valence
SciTegic.value.DoubleValue
7.358

@<SCITEGIC>MOL_PROPERTY
Coulomb
SciTegic.value.DoubleValue
-0.021

@<SCITEGIC>MOL_PROPERTY
VdW
SciTegic.value.DoubleValue
0.600

@<SCITEGIC>MOL_PROPERTY
VdW6
SciTegic.value.DoubleValue
-7.363

@<SCITEGIC>MOL_PROPERTY
VdW12
SciTegic.value.DoubleValue
7.964

@<SCITEGIC>MOL_PROPERTY
Bond
SciTegic.value.DoubleValue
0.121

@<SCITEGIC>MOL_PROPERTY
Angle
SciTegic.value.DoubleValue
2.425

@<SCITEGIC>MOL_PROPERTY
Pdih
SciTegic.value.DoubleValue
4.811

@<SCITEGIC>MOL_PROPERTY
Idih
SciTegic.value.DoubleValue
0.001

@<SCITEGIC>MOL_PROPERTY
Tether
SciTegic.value.DoubleValue
0.000

@<TRIPOS>MOLECULE
guest-s21_confgen4.mol2 : confsearch ligand conformer 171
          22          21           1
SMALL
USER_CHARGES
 
@<TRIPOS>ATOM
       1    C1      20.726463   20.182289   19.111912 C.2        1 MOL1         0.6145
       2    O1      21.922975   20.389269   19.062476 O.co2      1 MOL1        -0.6735
       3    O2      19.890010   20.982702   18.742383 O.co2      1 MOL1        -0.6735
       4    C2      20.251194   18.835468   19.649968 C.3        1 MOL1        -0.1985
       5    H1      20.864014   18.059510   19.176290 H          1 MOL1         0.0740
       6    H2      19.218633   18.670311   19.319168 H          1 MOL1         0.0740
       7    C3      20.347221   18.700757   21.192128 C.3        1 MOL1        -0.1882
       8    H3      20.134510   17.659035   21.463668 H          1 MOL1         0.0742
       9    H4      21.377753   18.908389   21.511963 H          1 MOL1         0.0742
      10    C4      19.367982   19.643084   21.932615 C.3        1 MOL1        -0.1880
      11    H5      18.335079   19.405823   21.643443 H          1 MOL1         0.0742
      12    H6      19.549408   20.677352   21.609560 H          1 MOL1         0.0742
      13    C5      19.501788   19.584658   23.472910 C.3        1 MOL1        -0.1880
      14    H7      20.534911   19.821775   23.761615 H          1 MOL1         0.0742
      15    H8      18.870020   20.371925   23.906478 H          1 MOL1         0.0742
      16    C6      19.090738   18.223140   24.077666 C.3        1 MOL1        -0.1856
      17    H9      19.761794   17.431513   23.719578 H          1 MOL1         0.0742
      18    H10     18.077342   17.960292   23.744298 H          1 MOL1         0.0742
      19    C7      19.130664   18.254143   25.618829 C.3        1 MOL1        -0.2871
      20    H11     20.140463   18.488365   25.980533 H          1 MOL1         0.0754
      21    H12     18.839728   17.279999   26.032908 H          1 MOL1         0.0754
      22    H13     18.440369   19.010354   26.015055 H          1 MOL1         0.0754
@<TRIPOS>BOND
    1     1     2    1
    2     1     3    2
    3     1     4    1
    4     4     5    1
    5     4     6    1
    6     4     7    1
    7     7     8    1
    8     7     9    1
    9     7    10    1
   10    10    11    1
   11    10    12    1
   12    10    13    1
   13    13    14    1
   14    13    15    1
   15    13    16    1
   16    16    17    1
   17    16    18    1
   18    16    19    1
   19    19    20    1
   20    19    21    1
   21    19    22    1
@<TRIPOS>SUBSTRUCTURE
       1 MOL1            1 RESIDUE      1      MOL     
@<SCITEGIC>MOL_PROPERTY
VConf Rank
SciTegic.value.IntegerValue
171

@<SCITEGIC>MOL_PROPERTY
Conf_Id
SciTegic.value.IntegerValue
53

@<SCITEGIC>MOL_PROPERTY
Delta U+W
SciTegic.value.DoubleValue
0.723

@<SCITEGIC>MOL_PROPERTY
U+W
SciTegic.value.DoubleValue
-52.436

@<SCITEGIC>MOL_PROPERTY
Grad RMS
SciTegic.value.DoubleValue
0.000000

@<SCITEGIC>MOL_PROPERTY
U
SciTegic.value.DoubleValue
8.587

@<SCITEGIC>MOL_PROPERTY
W
SciTegic.value.DoubleValue
-61.022

@<SCITEGIC>MOL_PROPERTY
W(PB)
SciTegic.value.DoubleValue
-63.285

@<SCITEGIC>MOL_PROPERTY
W(SA)
SciTegic.value.DoubleValue
2.263

@<SCITEGIC>MOL_PROPERTY
Valence
SciTegic.value.DoubleValue
7.933

@<SCITEGIC>MOL_PROPERTY
Coulomb
SciTegic.value.DoubleValue
-0.124

@<SCITEGIC>MOL_PROPERTY
VdW
SciTegic.value.DoubleValue
0.778

@<SCITEGIC>MOL_PROPERTY
VdW6
SciTegic.value.DoubleValue
-7.981

@<SCITEGIC>MOL_PROPERTY
VdW12
SciTegic.value.DoubleValue
8.759

@<SCITEGIC>MOL_PROPERTY
Bond
SciTegic.value.DoubleValue
0.160

@<SCITEGIC>MOL_PROPERTY
Angle
SciTegic.value.DoubleValue
2.698

@<SCITEGIC>MOL_PROPERTY
Pdih
SciTegic.value.DoubleValue
5.074

@<SCITEGIC>MOL_PROPERTY
Idih
SciTegic.value.DoubleValue
0.001

@<SCITEGIC>MOL_PROPERTY
Tether
SciTegic.value.DoubleValue
0.000

@<TRIPOS>MOLECULE
guest-s21_confgen4.mol2 : confsearch ligand conformer 172
          22          21           1
SMALL
USER_CHARGES
 
@<TRIPOS>ATOM
       1    C1      17.230026   21.169083   22.483700 C.2        1 MOL1         0.6145
       2    O1      16.179382   20.559069   22.459218 O.co2      1 MOL1        -0.6735
       3    O2      17.304950   22.374423   22.618328 O.co2      1 MOL1        -0.6735
       4    C2      18.526469   20.376489   22.361106 C.3        1 MOL1        -0.1985
       5    H1      19.270024   21.013179   21.867108 H          1 MOL1         0.0740
       6    H2      18.331715   19.522945   21.702120 H          1 MOL1         0.0740
       7    C3      19.063224   19.888248   23.730285 C.3        1 MOL1        -0.1882
       8    H3      19.118090   20.747221   24.413349 H          1 MOL1         0.0742
       9    H4      18.340410   19.189227   24.173190 H          1 MOL1         0.0742
      10    C4      20.459969   19.220538   23.667578 C.3        1 MOL1        -0.1880
      11    H5      20.749982   18.963869   24.695664 H          1 MOL1         0.0742
      12    H6      21.209028   19.944389   23.318430 H          1 MOL1         0.0742
      13    C5      20.520660   17.929369   22.812646 C.3        1 MOL1        -0.1880
      14    H7      21.209515   17.223568   23.296707 H          1 MOL1         0.0742
      15    H8      19.538212   17.437816   22.800990 H          1 MOL1         0.0742
      16    C6      21.018533   18.172752   21.369164 C.3        1 MOL1        -0.1856
      17    H9      22.025480   18.611480   21.396912 H          1 MOL1         0.0742
      18    H10     20.375028   18.896834   20.855381 H          1 MOL1         0.0742
      19    C7      21.056638   16.863283   20.556040 C.3        1 MOL1        -0.2871
      20    H11     21.726218   16.129498   21.023539 H          1 MOL1         0.0754
      21    H12     21.418437   17.051212   19.536816 H          1 MOL1         0.0754
      22    H13     20.055996   16.417375   20.483657 H          1 MOL1         0.0754
@<TRIPOS>BOND
    1     1     2    1
    2     1     3    2
    3     1     4    1
    4     4     5    1
    5     4     6    1
    6     4     7    1
    7     7     8    1
    8     7     9    1
    9     7    10    1
   10    10    11    1
   11    10    12    1
   12    10    13    1
   13    13    14    1
   14    13    15    1
   15    13    16    1
   16    16    17    1
   17    16    18    1
   18    16    19    1
   19    19    20    1
   20    19    21    1
   21    19    22    1
@<TRIPOS>SUBSTRUCTURE
       1 MOL1            1 RESIDUE      1      MOL     
@<SCITEGIC>MOL_PROPERTY
VConf Rank
SciTegic.value.IntegerValue
172

@<SCITEGIC>MOL_PROPERTY
Conf_Id
SciTegic.value.IntegerValue
5

@<SCITEGIC>MOL_PROPERTY
Delta U+W
SciTegic.value.DoubleValue
2.167

@<SCITEGIC>MOL_PROPERTY
U+W
SciTegic.value.DoubleValue
-50.993

@<SCITEGIC>MOL_PROPERTY
Grad RMS
SciTegic.value.DoubleValue
0.000000

@<SCITEGIC>MOL_PROPERTY
U
SciTegic.value.DoubleValue
10.045

@<SCITEGIC>MOL_PROPERTY
W
SciTegic.value.DoubleValue
-61.037

@<SCITEGIC>MOL_PROPERTY
W(PB)
SciTegic.value.DoubleValue
-63.303

@<SCITEGIC>MOL_PROPERTY
W(SA)
SciTegic.value.DoubleValue
2.266

@<SCITEGIC>MOL_PROPERTY
Valence
SciTegic.value.DoubleValue
10.100

@<SCITEGIC>MOL_PROPERTY
Coulomb
SciTegic.value.DoubleValue
-0.883

@<SCITEGIC>MOL_PROPERTY
VdW
SciTegic.value.DoubleValue
0.828

@<SCITEGIC>MOL_PROPERTY
VdW6
SciTegic.value.DoubleValue
-8.177

@<SCITEGIC>MOL_PROPERTY
VdW12
SciTegic.value.DoubleValue
9.005

@<SCITEGIC>MOL_PROPERTY
Bond
SciTegic.value.DoubleValue
0.182

@<SCITEGIC>MOL_PROPERTY
Angle
SciTegic.value.DoubleValue
2.988

@<SCITEGIC>MOL_PROPERTY
Pdih
SciTegic.value.DoubleValue
6.930

@<SCITEGIC>MOL_PROPERTY
Idih
SciTegic.value.DoubleValue
0.001

@<SCITEGIC>MOL_PROPERTY
Tether
SciTegic.value.DoubleValue
0.000

@<TRIPOS>MOLECULE
guest-s21_confgen4.mol2 : confsearch ligand conformer 173
          22          21           1
SMALL
USER_CHARGES
 
@<TRIPOS>ATOM
       1    C1      17.546956   16.607820   23.062359 C.2        1 MOL1         0.6145
       2    O1      16.565595   17.165326   23.512566 O.co2      1 MOL1        -0.6735
       3    O2      17.654788   15.400468   22.977161 O.co2      1 MOL1        -0.6735
       4    C2      18.716552   17.469391   22.600036 C.3        1 MOL1        -0.1985
       5    H1      18.302668   18.398926   22.193347 H          1 MOL1         0.0740
       6    H2      19.222663   16.945858   21.780252 H          1 MOL1         0.0740
       7    C3      19.720390   17.779846   23.738925 C.3        1 MOL1        -0.1882
       8    H3      19.215536   18.373363   24.513596 H          1 MOL1         0.0742
       9    H4      20.012732   16.834961   24.217621 H          1 MOL1         0.0742
      10    C4      21.004096   18.513958   23.276487 C.3        1 MOL1        -0.1880
      11    H5      21.567382   17.883607   22.574831 H          1 MOL1         0.0742
      12    H6      21.651590   18.633148   24.155970 H          1 MOL1         0.0742
      13    C5      20.760660   19.916183   22.663124 C.3        1 MOL1        -0.1880
      14    H7      19.846333   20.358029   23.082340 H          1 MOL1         0.0742
      15    H8      21.585199   20.576216   22.965590 H          1 MOL1         0.0742
      16    C6      20.695178   19.906627   21.118334 C.3        1 MOL1        -0.1856
      17    H9      19.901856   19.234906   20.769340 H          1 MOL1         0.0742
      18    H10     21.638687   19.515835   20.713034 H          1 MOL1         0.0742
      19    C7      20.446127   21.319868   20.554370 C.3        1 MOL1        -0.2871
      20    H11     19.492203   21.724424   20.917307 H          1 MOL1         0.0754
      21    H12     20.409423   21.297718   19.457468 H          1 MOL1         0.0754
      22    H13     21.246855   22.009098   20.852915 H          1 MOL1         0.0754
@<TRIPOS>BOND
    1     1     2    1
    2     1     3    2
    3     1     4    1
    4     4     5    1
    5     4     6    1
    6     4     7    1
    7     7     8    1
    8     7     9    1
    9     7    10    1
   10    10    11    1
   11    10    12    1
   12    10    13    1
   13    13    14    1
   14    13    15    1
   15    13    16    1
   16    16    17    1
   17    16    18    1
   18    16    19    1
   19    19    20    1
   20    19    21    1
   21    19    22    1
@<TRIPOS>SUBSTRUCTURE
       1 MOL1            1 RESIDUE      1      MOL     
@<SCITEGIC>MOL_PROPERTY
VConf Rank
SciTegic.value.IntegerValue
173

@<SCITEGIC>MOL_PROPERTY
Conf_Id
SciTegic.value.IntegerValue
6

@<SCITEGIC>MOL_PROPERTY
Delta U+W
SciTegic.value.DoubleValue
2.118

@<SCITEGIC>MOL_PROPERTY
U+W
SciTegic.value.DoubleValue
-51.042

@<SCITEGIC>MOL_PROPERTY
Grad RMS
SciTegic.value.DoubleValue
0.000000

@<SCITEGIC>MOL_PROPERTY
U
SciTegic.value.DoubleValue
10.045

@<SCITEGIC>MOL_PROPERTY
W
SciTegic.value.DoubleValue
-61.086

@<SCITEGIC>MOL_PROPERTY
W(PB)
SciTegic.value.DoubleValue
-63.356

@<SCITEGIC>MOL_PROPERTY
W(SA)
SciTegic.value.DoubleValue
2.270

@<SCITEGIC>MOL_PROPERTY
Valence
SciTegic.value.DoubleValue
10.100

@<SCITEGIC>MOL_PROPERTY
Coulomb
SciTegic.value.DoubleValue
-0.883

@<SCITEGIC>MOL_PROPERTY
VdW
SciTegic.value.DoubleValue
0.828

@<SCITEGIC>MOL_PROPERTY
VdW6
SciTegic.value.DoubleValue
-8.177

@<SCITEGIC>MOL_PROPERTY
VdW12
SciTegic.value.DoubleValue
9.004

@<SCITEGIC>MOL_PROPERTY
Bond
SciTegic.value.DoubleValue
0.182

@<SCITEGIC>MOL_PROPERTY
Angle
SciTegic.value.DoubleValue
2.988

@<SCITEGIC>MOL_PROPERTY
Pdih
SciTegic.value.DoubleValue
6.930

@<SCITEGIC>MOL_PROPERTY
Idih
SciTegic.value.DoubleValue
0.001

@<SCITEGIC>MOL_PROPERTY
Tether
SciTegic.value.DoubleValue
0.000

@<TRIPOS>MOLECULE
guest-s21_confgen4.mol2 : confsearch ligand conformer 174
          22          21           1
SMALL
USER_CHARGES
 
@<TRIPOS>ATOM
       1    C1      19.967806   17.695491   20.241330 C.2        1 MOL1         0.6145
       2    O1      18.907542   17.778563   19.652744 O.co2      1 MOL1        -0.6735
       3    O2      20.395828   16.658141   20.707975 O.co2      1 MOL1        -0.6735
       4    C2      20.842626   18.943915   20.339226 C.3        1 MOL1        -0.1985
       5    H1      21.110005   19.214098   19.311100 H          1 MOL1         0.0740
       6    H2      21.778482   18.684527   20.848868 H          1 MOL1         0.0740
       7    C3      20.176648   20.168917   21.026921 C.3        1 MOL1        -0.1882
       8    H3      20.723773   21.069823   20.717982 H          1 MOL1         0.0742
       9    H4      19.150758   20.295958   20.654117 H          1 MOL1         0.0742
      10    C4      20.177493   20.124610   22.575129 C.3        1 MOL1        -0.1880
      11    H5      19.828861   21.098550   22.945089 H          1 MOL1         0.0742
      12    H6      21.206514   20.005921   22.940997 H          1 MOL1         0.0742
      13    C5      19.282071   19.016677   23.174471 C.3        1 MOL1        -0.1880
      14    H7      18.278756   19.072430   22.730290 H          1 MOL1         0.0742
      15    H8      19.690640   18.029880   22.922744 H          1 MOL1         0.0742
      16    C6      19.175535   19.137356   24.709409 C.3        1 MOL1        -0.1856
      17    H9      18.759048   20.118368   24.976820 H          1 MOL1         0.0742
      18    H10     20.178504   19.083546   25.155021 H          1 MOL1         0.0742
      19    C7      18.289290   18.025663   25.306172 C.3        1 MOL1        -0.2871
      20    H11     17.270396   18.075739   24.900322 H          1 MOL1         0.0754
      21    H12     18.225157   18.125559   26.397471 H          1 MOL1         0.0754
      22    H13     18.699752   17.032798   25.079801 H          1 MOL1         0.0754
@<TRIPOS>BOND
    1     1     2    1
    2     1     3    2
    3     1     4    1
    4     4     5    1
    5     4     6    1
    6     4     7    1
    7     7     8    1
    8     7     9    1
    9     7    10    1
   10    10    11    1
   11    10    12    1
   12    10    13    1
   13    13    14    1
   14    13    15    1
   15    13    16    1
   16    16    17    1
   17    16    18    1
   18    16    19    1
   19    19    20    1
   20    19    21    1
   21    19    22    1
@<TRIPOS>SUBSTRUCTURE
       1 MOL1            1 RESIDUE      1      MOL     
@<SCITEGIC>MOL_PROPERTY
VConf Rank
SciTegic.value.IntegerValue
174

@<SCITEGIC>MOL_PROPERTY
Conf_Id
SciTegic.value.IntegerValue
8

@<SCITEGIC>MOL_PROPERTY
Delta U+W
SciTegic.value.DoubleValue
1.886

@<SCITEGIC>MOL_PROPERTY
U+W
SciTegic.value.DoubleValue
-51.274

@<SCITEGIC>MOL_PROPERTY
Grad RMS
SciTegic.value.DoubleValue
0.000000

@<SCITEGIC>MOL_PROPERTY
U
SciTegic.value.DoubleValue
11.237

@<SCITEGIC>MOL_PROPERTY
W
SciTegic.value.DoubleValue
-62.510

@<SCITEGIC>MOL_PROPERTY
W(PB)
SciTegic.value.DoubleValue
-64.777

@<SCITEGIC>MOL_PROPERTY
W(SA)
SciTegic.value.DoubleValue
2.267

@<SCITEGIC>MOL_PROPERTY
Valence
SciTegic.value.DoubleValue
9.029

@<SCITEGIC>MOL_PROPERTY
Coulomb
SciTegic.value.DoubleValue
1.667

@<SCITEGIC>MOL_PROPERTY
VdW
SciTegic.value.DoubleValue
0.540

@<SCITEGIC>MOL_PROPERTY
VdW6
SciTegic.value.DoubleValue
-8.825

@<SCITEGIC>MOL_PROPERTY
VdW12
SciTegic.value.DoubleValue
9.365

@<SCITEGIC>MOL_PROPERTY
Bond
SciTegic.value.DoubleValue
0.186

@<SCITEGIC>MOL_PROPERTY
Angle
SciTegic.value.DoubleValue
3.195

@<SCITEGIC>MOL_PROPERTY
Pdih
SciTegic.value.DoubleValue
5.642

@<SCITEGIC>MOL_PROPERTY
Idih
SciTegic.value.DoubleValue
0.007

@<SCITEGIC>MOL_PROPERTY
Tether
SciTegic.value.DoubleValue
0.000

@<TRIPOS>MOLECULE
guest-s21_confgen4.mol2 : confsearch ligand conformer 175
          22          21           1
SMALL
USER_CHARGES
 
@<TRIPOS>ATOM
       1    C1      20.510762   21.489136   20.908415 C.2        1 MOL1         0.6145
       2    O1      20.838562   20.798429   19.963833 O.co2      1 MOL1        -0.6735
       3    O2      21.196149   22.389230   21.352693 O.co2      1 MOL1        -0.6735
       4    C2      19.151893   21.233987   21.554589 C.3        1 MOL1        -0.1985
       5    H1      18.556000   20.605407   20.883392 H          1 MOL1         0.0740
       6    H2      18.634246   22.198409   21.615050 H          1 MOL1         0.0740
       7    C3      19.230448   20.604717   22.972684 C.3        1 MOL1        -0.1882
       8    H3      19.765351   21.299187   23.635193 H          1 MOL1         0.0742
       9    H4      18.215571   20.510260   23.381870 H          1 MOL1         0.0742
      10    C4      19.932735   19.225428   23.028235 C.3        1 MOL1        -0.1880
      11    H5      20.012602   18.928675   24.081588 H          1 MOL1         0.0742
      12    H6      20.961350   19.317497   22.653538 H          1 MOL1         0.0742
      13    C5      19.188510   18.122528   22.236286 C.3        1 MOL1        -0.1880
      14    H7      18.153450   18.040898   22.594727 H          1 MOL1         0.0742
      15    H8      19.132722   18.411055   21.178661 H          1 MOL1         0.0742
      16    C6      19.875279   16.739098   22.316734 C.3        1 MOL1        -0.1856
      17    H9      20.915767   16.821312   21.973216 H          1 MOL1         0.0742
      18    H10     19.371706   16.056138   21.618768 H          1 MOL1         0.0742
      19    C7      19.840250   16.116572   23.729549 C.3        1 MOL1        -0.2871
      20    H11     20.435481   16.701582   24.441456 H          1 MOL1         0.0754
      21    H12     20.252446   15.099406   23.710443 H          1 MOL1         0.0754
      22    H13     18.811222   16.056876   24.107221 H          1 MOL1         0.0754
@<TRIPOS>BOND
    1     1     2    1
    2     1     3    2
    3     1     4    1
    4     4     5    1
    5     4     6    1
    6     4     7    1
    7     7     8    1
    8     7     9    1
    9     7    10    1
   10    10    11    1
   11    10    12    1
   12    10    13    1
   13    13    14    1
   14    13    15    1
   15    13    16    1
   16    16    17    1
   17    16    18    1
   18    16    19    1
   19    19    20    1
   20    19    21    1
   21    19    22    1
@<TRIPOS>SUBSTRUCTURE
       1 MOL1            1 RESIDUE      1      MOL     
@<SCITEGIC>MOL_PROPERTY
VConf Rank
SciTegic.value.IntegerValue
175

@<SCITEGIC>MOL_PROPERTY
Conf_Id
SciTegic.value.IntegerValue
93

@<SCITEGIC>MOL_PROPERTY
Delta U+W
SciTegic.value.DoubleValue
1.836

@<SCITEGIC>MOL_PROPERTY
U+W
SciTegic.value.DoubleValue
-51.323

@<SCITEGIC>MOL_PROPERTY
Grad RMS
SciTegic.value.DoubleValue
0.000000

@<SCITEGIC>MOL_PROPERTY
U
SciTegic.value.DoubleValue
10.427

@<SCITEGIC>MOL_PROPERTY
W
SciTegic.value.DoubleValue
-61.751

@<SCITEGIC>MOL_PROPERTY
W(PB)
SciTegic.value.DoubleValue
-63.980

@<SCITEGIC>MOL_PROPERTY
W(SA)
SciTegic.value.DoubleValue
2.230

@<SCITEGIC>MOL_PROPERTY
Valence
SciTegic.value.DoubleValue
8.446

@<SCITEGIC>MOL_PROPERTY
Coulomb
SciTegic.value.DoubleValue
1.306

@<SCITEGIC>MOL_PROPERTY
VdW
SciTegic.value.DoubleValue
0.676

@<SCITEGIC>MOL_PROPERTY
VdW6
SciTegic.value.DoubleValue
-8.928

@<SCITEGIC>MOL_PROPERTY
VdW12
SciTegic.value.DoubleValue
9.604

@<SCITEGIC>MOL_PROPERTY
Bond
SciTegic.value.DoubleValue
0.209

@<SCITEGIC>MOL_PROPERTY
Angle
SciTegic.value.DoubleValue
3.066

@<SCITEGIC>MOL_PROPERTY
Pdih
SciTegic.value.DoubleValue
5.170

@<SCITEGIC>MOL_PROPERTY
Idih
SciTegic.value.DoubleValue
0.001

@<SCITEGIC>MOL_PROPERTY
Tether
SciTegic.value.DoubleValue
0.000

@<TRIPOS>MOLECULE
guest-s21_confgen4.mol2 : confsearch ligand conformer 176
          22          21           1
SMALL
USER_CHARGES
 
@<TRIPOS>ATOM
       1    C1      18.673270   21.669808   23.847069 C.2        1 MOL1         0.6145
       2    O1      17.644574   21.750592   24.489382 O.co2      1 MOL1        -0.6735
       3    O2      18.881750   22.301435   22.830039 O.co2      1 MOL1        -0.6735
       4    C2      19.773273   20.746958   24.364277 C.3        1 MOL1        -0.1985
       5    H1      19.927947   20.986616   25.422749 H          1 MOL1         0.0740
       6    H2      20.709607   20.994550   23.851748 H          1 MOL1         0.0740
       7    C3      19.452057   19.233673   24.223074 C.3        1 MOL1        -0.1882
       8    H3      20.267397   18.648885   24.669812 H          1 MOL1         0.0742
       9    H4      18.553472   19.009412   24.814325 H          1 MOL1         0.0742
      10    C4      19.220643   18.756517   22.767910 C.3        1 MOL1        -0.1880
      11    H5      18.382806   19.311628   22.324283 H          1 MOL1         0.0742
      12    H6      18.911078   17.704379   22.802096 H          1 MOL1         0.0742
      13    C5      20.471845   18.897418   21.866753 C.3        1 MOL1        -0.1880
      14    H7      20.763482   19.954375   21.814539 H          1 MOL1         0.0742
      15    H8      21.317404   18.360027   22.317013 H          1 MOL1         0.0742
      16    C6      20.247931   18.393432   20.421812 C.3        1 MOL1        -0.1856
      17    H9      21.125692   18.660013   19.817126 H          1 MOL1         0.0742
      18    H10     19.392583   18.918496   19.974522 H          1 MOL1         0.0742
      19    C7      20.029120   16.867492   20.329954 C.3        1 MOL1        -0.2871
      20    H11     19.094202   16.565382   20.817814 H          1 MOL1         0.0754
      21    H12     20.856717   16.322724   20.802616 H          1 MOL1         0.0754
      22    H13     19.972330   16.550999   19.280428 H          1 MOL1         0.0754
@<TRIPOS>BOND
    1     1     2    1
    2     1     3    2
    3     1     4    1
    4     4     5    1
    5     4     6    1
    6     4     7    1
    7     7     8    1
    8     7     9    1
    9     7    10    1
   10    10    11    1
   11    10    12    1
   12    10    13    1
   13    13    14    1
   14    13    15    1
   15    13    16    1
   16    16    17    1
   17    16    18    1
   18    16    19    1
   19    19    20    1
   20    19    21    1
   21    19    22    1
@<TRIPOS>SUBSTRUCTURE
       1 MOL1            1 RESIDUE      1      MOL     
@<SCITEGIC>MOL_PROPERTY
VConf Rank
SciTegic.value.IntegerValue
176

@<SCITEGIC>MOL_PROPERTY
Conf_Id
SciTegic.value.IntegerValue
70

@<SCITEGIC>MOL_PROPERTY
Delta U+W
SciTegic.value.DoubleValue
1.803

@<SCITEGIC>MOL_PROPERTY
U+W
SciTegic.value.DoubleValue
-51.356

@<SCITEGIC>MOL_PROPERTY
Grad RMS
SciTegic.value.DoubleValue
0.000000

@<SCITEGIC>MOL_PROPERTY
U
SciTegic.value.DoubleValue
10.428

@<SCITEGIC>MOL_PROPERTY
W
SciTegic.value.DoubleValue
-61.784

@<SCITEGIC>MOL_PROPERTY
W(PB)
SciTegic.value.DoubleValue
-64.014

@<SCITEGIC>MOL_PROPERTY
W(SA)
SciTegic.value.DoubleValue
2.230

@<SCITEGIC>MOL_PROPERTY
Valence
SciTegic.value.DoubleValue
8.445

@<SCITEGIC>MOL_PROPERTY
Coulomb
SciTegic.value.DoubleValue
1.306

@<SCITEGIC>MOL_PROPERTY
VdW
SciTegic.value.DoubleValue
0.676

@<SCITEGIC>MOL_PROPERTY
VdW6
SciTegic.value.DoubleValue
-8.929

@<SCITEGIC>MOL_PROPERTY
VdW12
SciTegic.value.DoubleValue
9.605

@<SCITEGIC>MOL_PROPERTY
Bond
SciTegic.value.DoubleValue
0.209

@<SCITEGIC>MOL_PROPERTY
Angle
SciTegic.value.DoubleValue
3.066

@<SCITEGIC>MOL_PROPERTY
Pdih
SciTegic.value.DoubleValue
5.170

@<SCITEGIC>MOL_PROPERTY
Idih
SciTegic.value.DoubleValue
0.001

@<SCITEGIC>MOL_PROPERTY
Tether
SciTegic.value.DoubleValue
0.000

@<TRIPOS>MOLECULE
guest-s21_confgen4.mol2 : confsearch ligand conformer 177
          22          21           1
SMALL
USER_CHARGES
 
@<TRIPOS>ATOM
       1    C1      18.699729   21.247380   24.654887 C.2        1 MOL1         0.6145
       2    O1      17.520741   20.996820   24.810196 O.co2      1 MOL1        -0.6735
       3    O2      19.117243   22.340454   24.326637 O.co2      1 MOL1        -0.6735
       4    C2      19.710985   20.132491   24.906843 C.3        1 MOL1        -0.1985
       5    H1      19.424583   19.634134   25.840467 H          1 MOL1         0.0740
       6    H2      20.695419   20.584751   25.077692 H          1 MOL1         0.0740
       7    C3      19.792118   19.086234   23.765026 C.3        1 MOL1        -0.1882
       8    H3      20.439833   18.258843   24.084643 H          1 MOL1         0.0742
       9    H4      18.792840   18.662249   23.599767 H          1 MOL1         0.0742
      10    C4      20.342677   19.687244   22.449642 C.3        1 MOL1        -0.1880
      11    H5      21.301395   20.181865   22.657124 H          1 MOL1         0.0742
      12    H6      19.663793   20.470056   22.084091 H          1 MOL1         0.0742
      13    C5      20.563202   18.635508   21.336650 C.3        1 MOL1        -0.1880
      14    H7      21.066469   19.124094   20.491135 H          1 MOL1         0.0742
      15    H8      21.247948   17.855711   21.697071 H          1 MOL1         0.0742
      16    C6      19.253439   17.987386   20.834031 C.3        1 MOL1        -0.1856
      17    H9      18.548258   18.770458   20.522927 H          1 MOL1         0.0742
      18    H10     18.772334   17.427324   21.646575 H          1 MOL1         0.0742
      19    C7      19.512659   17.032220   19.651578 C.3        1 MOL1        -0.2871
      20    H11     19.959387   17.568019   18.803813 H          1 MOL1         0.0754
      21    H12     18.574048   16.577988   19.308443 H          1 MOL1         0.0754
      22    H13     20.194348   16.222571   19.943367 H          1 MOL1         0.0754
@<TRIPOS>BOND
    1     1     2    1
    2     1     3    2
    3     1     4    1
    4     4     5    1
    5     4     6    1
    6     4     7    1
    7     7     8    1
    8     7     9    1
    9     7    10    1
   10    10    11    1
   11    10    12    1
   12    10    13    1
   13    13    14    1
   14    13    15    1
   15    13    16    1
   16    16    17    1
   17    16    18    1
   18    16    19    1
   19    19    20    1
   20    19    21    1
   21    19    22    1
@<TRIPOS>SUBSTRUCTURE
       1 MOL1            1 RESIDUE      1      MOL     
@<SCITEGIC>MOL_PROPERTY
VConf Rank
SciTegic.value.IntegerValue
177

@<SCITEGIC>MOL_PROPERTY
Conf_Id
SciTegic.value.IntegerValue
85

@<SCITEGIC>MOL_PROPERTY
Delta U+W
SciTegic.value.DoubleValue
0.707

@<SCITEGIC>MOL_PROPERTY
U+W
SciTegic.value.DoubleValue
-52.452

@<SCITEGIC>MOL_PROPERTY
Grad RMS
SciTegic.value.DoubleValue
0.000000

@<SCITEGIC>MOL_PROPERTY
U
SciTegic.value.DoubleValue
8.925

@<SCITEGIC>MOL_PROPERTY
W
SciTegic.value.DoubleValue
-61.378

@<SCITEGIC>MOL_PROPERTY
W(PB)
SciTegic.value.DoubleValue
-63.661

@<SCITEGIC>MOL_PROPERTY
W(SA)
SciTegic.value.DoubleValue
2.283

@<SCITEGIC>MOL_PROPERTY
Valence
SciTegic.value.DoubleValue
7.881

@<SCITEGIC>MOL_PROPERTY
Coulomb
SciTegic.value.DoubleValue
0.349

@<SCITEGIC>MOL_PROPERTY
VdW
SciTegic.value.DoubleValue
0.695

@<SCITEGIC>MOL_PROPERTY
VdW6
SciTegic.value.DoubleValue
-8.049

@<SCITEGIC>MOL_PROPERTY
VdW12
SciTegic.value.DoubleValue
8.743

@<SCITEGIC>MOL_PROPERTY
Bond
SciTegic.value.DoubleValue
0.156

@<SCITEGIC>MOL_PROPERTY
Angle
SciTegic.value.DoubleValue
2.660

@<SCITEGIC>MOL_PROPERTY
Pdih
SciTegic.value.DoubleValue
5.064

@<SCITEGIC>MOL_PROPERTY
Idih
SciTegic.value.DoubleValue
0.001

@<SCITEGIC>MOL_PROPERTY
Tether
SciTegic.value.DoubleValue
0.000

@<TRIPOS>MOLECULE
guest-s21_confgen4.mol2 : confsearch ligand conformer 178
          22          21           1
SMALL
USER_CHARGES
 
@<TRIPOS>ATOM
       1    C1      21.643478   19.153007   19.573310 C.2        1 MOL1         0.6145
       2    O1      22.751118   19.613406   19.768518 O.co2      1 MOL1        -0.6735
       3    O2      21.435530   18.167975   18.892544 O.co2      1 MOL1        -0.6735
       4    C2      20.444762   19.862472   20.197117 C.3        1 MOL1        -0.1985
       5    H1      19.678778   19.955674   19.418289 H          1 MOL1         0.0740
       6    H2      20.743801   20.881292   20.471773 H          1 MOL1         0.0740
       7    C3      19.845442   19.130661   21.426326 C.3        1 MOL1        -0.1882
       8    H3      18.906693   19.628087   21.700596 H          1 MOL1         0.0742
       9    H4      19.594147   18.097484   21.149428 H          1 MOL1         0.0742
      10    C4      20.799350   19.132318   22.643346 C.3        1 MOL1        -0.1880
      11    H5      20.976719   20.167143   22.966421 H          1 MOL1         0.0742
      12    H6      21.776618   18.735443   22.336299 H          1 MOL1         0.0742
      13    C5      20.296852   18.295729   23.846733 C.3        1 MOL1        -0.1880
      14    H7      20.204861   17.239552   23.558715 H          1 MOL1         0.0742
      15    H8      21.077634   18.327018   24.618917 H          1 MOL1         0.0742
      16    C6      18.974284   18.796939   24.478798 C.3        1 MOL1        -0.1856
      17    H9      18.861138   19.878118   24.319236 H          1 MOL1         0.0742
      18    H10     19.028531   18.653120   25.566765 H          1 MOL1         0.0742
      19    C7      17.728206   18.045128   23.960049 C.3        1 MOL1        -0.2871
      20    H11     17.603669   18.159081   22.877271 H          1 MOL1         0.0754
      21    H12     16.820189   18.427427   24.443962 H          1 MOL1         0.0754
      22    H13     17.799919   16.972272   24.181235 H          1 MOL1         0.0754
@<TRIPOS>BOND
    1     1     2    1
    2     1     3    2
    3     1     4    1
    4     4     5    1
    5     4     6    1
    6     4     7    1
    7     7     8    1
    8     7     9    1
    9     7    10    1
   10    10    11    1
   11    10    12    1
   12    10    13    1
   13    13    14    1
   14    13    15    1
   15    13    16    1
   16    16    17    1
   17    16    18    1
   18    16    19    1
   19    19    20    1
   20    19    21    1
   21    19    22    1
@<TRIPOS>SUBSTRUCTURE
       1 MOL1            1 RESIDUE      1      MOL     
@<SCITEGIC>MOL_PROPERTY
VConf Rank
SciTegic.value.IntegerValue
178

@<SCITEGIC>MOL_PROPERTY
Conf_Id
SciTegic.value.IntegerValue
82

@<SCITEGIC>MOL_PROPERTY
Delta U+W
SciTegic.value.DoubleValue
3.438

@<SCITEGIC>MOL_PROPERTY
U+W
SciTegic.value.DoubleValue
-49.721

@<SCITEGIC>MOL_PROPERTY
Grad RMS
SciTegic.value.DoubleValue
0.000000

@<SCITEGIC>MOL_PROPERTY
U
SciTegic.value.DoubleValue
11.773

@<SCITEGIC>MOL_PROPERTY
W
SciTegic.value.DoubleValue
-61.495

@<SCITEGIC>MOL_PROPERTY
W(PB)
SciTegic.value.DoubleValue
-63.749

@<SCITEGIC>MOL_PROPERTY
W(SA)
SciTegic.value.DoubleValue
2.254

@<SCITEGIC>MOL_PROPERTY
Valence
SciTegic.value.DoubleValue
10.419

@<SCITEGIC>MOL_PROPERTY
Coulomb
SciTegic.value.DoubleValue
0.565

@<SCITEGIC>MOL_PROPERTY
VdW
SciTegic.value.DoubleValue
0.789

@<SCITEGIC>MOL_PROPERTY
VdW6
SciTegic.value.DoubleValue
-8.847

@<SCITEGIC>MOL_PROPERTY
VdW12
SciTegic.value.DoubleValue
9.636

@<SCITEGIC>MOL_PROPERTY
Bond
SciTegic.value.DoubleValue
0.200

@<SCITEGIC>MOL_PROPERTY
Angle
SciTegic.value.DoubleValue
3.187

@<SCITEGIC>MOL_PROPERTY
Pdih
SciTegic.value.DoubleValue
7.032

@<SCITEGIC>MOL_PROPERTY
Idih
SciTegic.value.DoubleValue
0.001

@<SCITEGIC>MOL_PROPERTY
Tether
SciTegic.value.DoubleValue
0.000

@<TRIPOS>MOLECULE
guest-s21_confgen4.mol2 : confsearch ligand conformer 179
          22          21           1
SMALL
USER_CHARGES
 
@<TRIPOS>ATOM
       1    C1      18.056219   19.697002   19.734673 C.2        1 MOL1         0.6145
       2    O1      18.794497   20.074570   18.846213 O.co2      1 MOL1        -0.6735
       3    O2      17.140728   18.916706   19.561599 O.co2      1 MOL1        -0.6735
       4    C2      18.278143   20.252085   21.138964 C.3        1 MOL1        -0.1985
       5    H1      17.363186   20.101329   21.724610 H          1 MOL1         0.0740
       6    H2      18.418982   21.335162   21.043565 H          1 MOL1         0.0740
       7    C3      19.494573   19.635979   21.878155 C.3        1 MOL1        -0.1882
       8    H3      20.395066   19.752323   21.259404 H          1 MOL1         0.0742
       9    H4      19.662240   20.204956   22.801225 H          1 MOL1         0.0742
      10    C4      19.285333   18.144361   22.227977 C.3        1 MOL1        -0.1880
      11    H5      19.007707   17.595785   21.317577 H          1 MOL1         0.0742
      12    H6      18.434457   18.046873   22.915876 H          1 MOL1         0.0742
      13    C5      20.528282   17.455093   22.844836 C.3        1 MOL1        -0.1880
      14    H7      20.277273   16.396227   22.995378 H          1 MOL1         0.0742
      15    H8      21.359482   17.465016   22.126550 H          1 MOL1         0.0742
      16    C6      20.986719   18.039194   24.204453 C.3        1 MOL1        -0.1856
      17    H9      21.343759   17.215467   24.837931 H          1 MOL1         0.0742
      18    H10     20.133938   18.484614   24.735091 H          1 MOL1         0.0742
      19    C7      22.131423   19.068113   24.070265 C.3        1 MOL1        -0.2871
      20    H11     23.014906   18.610293   23.606644 H          1 MOL1         0.0754
      21    H12     22.427680   19.443701   25.058184 H          1 MOL1         0.0754
      22    H13     21.837377   19.929033   23.459317 H          1 MOL1         0.0754
@<TRIPOS>BOND
    1     1     2    1
    2     1     3    2
    3     1     4    1
    4     4     5    1
    5     4     6    1
    6     4     7    1
    7     7     8    1
    8     7     9    1
    9     7    10    1
   10    10    11    1
   11    10    12    1
   12    10    13    1
   13    13    14    1
   14    13    15    1
   15    13    16    1
   16    16    17    1
   17    16    18    1
   18    16    19    1
   19    19    20    1
   20    19    21    1
   21    19    22    1
@<TRIPOS>SUBSTRUCTURE
       1 MOL1            1 RESIDUE      1      MOL     
@<SCITEGIC>MOL_PROPERTY
VConf Rank
SciTegic.value.IntegerValue
179

@<SCITEGIC>MOL_PROPERTY
Conf_Id
SciTegic.value.IntegerValue
94

@<SCITEGIC>MOL_PROPERTY
Delta U+W
SciTegic.value.DoubleValue
3.471

@<SCITEGIC>MOL_PROPERTY
U+W
SciTegic.value.DoubleValue
-49.688

@<SCITEGIC>MOL_PROPERTY
Grad RMS
SciTegic.value.DoubleValue
0.000000

@<SCITEGIC>MOL_PROPERTY
U
SciTegic.value.DoubleValue
11.773

@<SCITEGIC>MOL_PROPERTY
W
SciTegic.value.DoubleValue
-61.461

@<SCITEGIC>MOL_PROPERTY
W(PB)
SciTegic.value.DoubleValue
-63.710

@<SCITEGIC>MOL_PROPERTY
W(SA)
SciTegic.value.DoubleValue
2.248

@<SCITEGIC>MOL_PROPERTY
Valence
SciTegic.value.DoubleValue
10.419

@<SCITEGIC>MOL_PROPERTY
Coulomb
SciTegic.value.DoubleValue
0.566

@<SCITEGIC>MOL_PROPERTY
VdW
SciTegic.value.DoubleValue
0.789

@<SCITEGIC>MOL_PROPERTY
VdW6
SciTegic.value.DoubleValue
-8.847

@<SCITEGIC>MOL_PROPERTY
VdW12
SciTegic.value.DoubleValue
9.636

@<SCITEGIC>MOL_PROPERTY
Bond
SciTegic.value.DoubleValue
0.200

@<SCITEGIC>MOL_PROPERTY
Angle
SciTegic.value.DoubleValue
3.187

@<SCITEGIC>MOL_PROPERTY
Pdih
SciTegic.value.DoubleValue
7.032

@<SCITEGIC>MOL_PROPERTY
Idih
SciTegic.value.DoubleValue
0.001

@<SCITEGIC>MOL_PROPERTY
Tether
SciTegic.value.DoubleValue
0.000

@<TRIPOS>MOLECULE
guest-s21_confgen4.mol2 : confsearch ligand conformer 180
          22          21           1
SMALL
USER_CHARGES
 
@<TRIPOS>ATOM
       1    C1      19.949899   17.232394   19.608911 C.2        1 MOL1         0.6145
       2    O1      19.090824   16.654361   18.972855 O.co2      1 MOL1        -0.6735
       3    O2      21.107841   16.867708   19.661326 O.co2      1 MOL1        -0.6735
       4    C2      19.548196   18.472125   20.399882 C.3        1 MOL1        -0.1985
       5    H1      18.744326   18.979654   19.853585 H          1 MOL1         0.0740
       6    H2      20.408961   19.150218   20.417408 H          1 MOL1         0.0740
       7    C3      19.087663   18.140240   21.842870 C.3        1 MOL1        -0.1882
       8    H3      18.279978   17.397068   21.793488 H          1 MOL1         0.0742
       9    H4      19.909660   17.659376   22.389603 H          1 MOL1         0.0742
      10    C4      18.576086   19.374240   22.627694 C.3        1 MOL1        -0.1880
      11    H5      18.222263   19.046128   23.613912 H          1 MOL1         0.0742
      12    H6      17.693041   19.779105   22.114994 H          1 MOL1         0.0742
      13    C5      19.610002   20.516752   22.808940 C.3        1 MOL1        -0.1880
      14    H7      19.841790   20.956039   21.829883 H          1 MOL1         0.0742
      15    H8      19.142802   21.322071   23.391804 H          1 MOL1         0.0742
      16    C6      20.933156   20.104662   23.499864 C.3        1 MOL1        -0.1856
      17    H9      21.591411   20.982887   23.548104 H          1 MOL1         0.0742
      18    H10     21.462915   19.361128   22.889524 H          1 MOL1         0.0742
      19    C7      20.730004   19.556876   24.929012 C.3        1 MOL1        -0.2871
      20    H11     20.186992   20.278693   25.552768 H          1 MOL1         0.0754
      21    H12     21.698522   19.358205   25.405718 H          1 MOL1         0.0754
      22    H13     20.164831   18.616436   24.918633 H          1 MOL1         0.0754
@<TRIPOS>BOND
    1     1     2    1
    2     1     3    2
    3     1     4    1
    4     4     5    1
    5     4     6    1
    6     4     7    1
    7     7     8    1
    8     7     9    1
    9     7    10    1
   10    10    11    1
   11    10    12    1
   12    10    13    1
   13    13    14    1
   14    13    15    1
   15    13    16    1
   16    16    17    1
   17    16    18    1
   18    16    19    1
   19    19    20    1
   20    19    21    1
   21    19    22    1
@<TRIPOS>SUBSTRUCTURE
       1 MOL1            1 RESIDUE      1      MOL     
@<SCITEGIC>MOL_PROPERTY
VConf Rank
SciTegic.value.IntegerValue
180

@<SCITEGIC>MOL_PROPERTY
Conf_Id
SciTegic.value.IntegerValue
56

@<SCITEGIC>MOL_PROPERTY
Delta U+W
SciTegic.value.DoubleValue
0.853

@<SCITEGIC>MOL_PROPERTY
U+W
SciTegic.value.DoubleValue
-52.307

@<SCITEGIC>MOL_PROPERTY
Grad RMS
SciTegic.value.DoubleValue
0.000000

@<SCITEGIC>MOL_PROPERTY
U
SciTegic.value.DoubleValue
8.874

@<SCITEGIC>MOL_PROPERTY
W
SciTegic.value.DoubleValue
-61.181

@<SCITEGIC>MOL_PROPERTY
W(PB)
SciTegic.value.DoubleValue
-63.413

@<SCITEGIC>MOL_PROPERTY
W(SA)
SciTegic.value.DoubleValue
2.232

@<SCITEGIC>MOL_PROPERTY
Valence
SciTegic.value.DoubleValue
8.479

@<SCITEGIC>MOL_PROPERTY
Coulomb
SciTegic.value.DoubleValue
-0.357

@<SCITEGIC>MOL_PROPERTY
VdW
SciTegic.value.DoubleValue
0.753

@<SCITEGIC>MOL_PROPERTY
VdW6
SciTegic.value.DoubleValue
-9.081

@<SCITEGIC>MOL_PROPERTY
VdW12
SciTegic.value.DoubleValue
9.833

@<SCITEGIC>MOL_PROPERTY
Bond
SciTegic.value.DoubleValue
0.221

@<SCITEGIC>MOL_PROPERTY
Angle
SciTegic.value.DoubleValue
3.208

@<SCITEGIC>MOL_PROPERTY
Pdih
SciTegic.value.DoubleValue
5.050

@<SCITEGIC>MOL_PROPERTY
Idih
SciTegic.value.DoubleValue
0.000

@<SCITEGIC>MOL_PROPERTY
Tether
SciTegic.value.DoubleValue
0.000

@<TRIPOS>MOLECULE
guest-s21_confgen4.mol2 : confsearch ligand conformer 181
          22          21           1
SMALL
USER_CHARGES
 
@<TRIPOS>ATOM
       1    C1      20.137334   15.867944   24.772885 C.2        1 MOL1         0.6145
       2    O1      21.352355   15.866839   24.726782 O.co2      1 MOL1        -0.6735
       3    O2      19.498750   15.094054   25.457886 O.co2      1 MOL1        -0.6735
       4    C2      19.347132   16.878983   23.940475 C.3        1 MOL1        -0.1985
       5    H1      18.720988   17.454149   24.632644 H          1 MOL1         0.0740
       6    H2      18.670100   16.310596   23.291992 H          1 MOL1         0.0740
       7    C3      20.205729   17.846272   23.082819 C.3        1 MOL1        -0.1882
       8    H3      20.886035   18.408018   23.737887 H          1 MOL1         0.0742
       9    H4      20.834965   17.263450   22.395890 H          1 MOL1         0.0742
      10    C4      19.330095   18.830278   22.276898 C.3        1 MOL1        -0.1880
      11    H5      18.701971   19.411755   22.965720 H          1 MOL1         0.0742
      12    H6      18.650772   18.266410   21.622909 H          1 MOL1         0.0742
      13    C5      20.186116   19.791443   21.424432 C.3        1 MOL1        -0.1880
      14    H7      20.865670   20.355516   22.078002 H          1 MOL1         0.0742
      15    H8      20.814409   19.210397   20.735404 H          1 MOL1         0.0742
      16    C6      19.311727   20.775099   20.618847 C.3        1 MOL1        -0.1856
      17    H9      18.683234   21.359630   21.304992 H          1 MOL1         0.0742
      18    H10     18.631900   20.214434   19.962367 H          1 MOL1         0.0742
      19    C7      20.170296   21.733101   19.768888 C.3        1 MOL1        -0.2871
      20    H11     20.838341   22.329822   20.403750 H          1 MOL1         0.0754
      21    H12     19.532926   22.425028   19.203126 H          1 MOL1         0.0754
      22    H13     20.786563   21.176058   19.051026 H          1 MOL1         0.0754
@<TRIPOS>BOND
    1     1     2    1
    2     1     3    2
    3     1     4    1
    4     4     5    1
    5     4     6    1
    6     4     7    1
    7     7     8    1
    8     7     9    1
    9     7    10    1
   10    10    11    1
   11    10    12    1
   12    10    13    1
   13    13    14    1
   14    13    15    1
   15    13    16    1
   16    16    17    1
   17    16    18    1
   18    16    19    1
   19    19    20    1
   20    19    21    1
   21    19    22    1
@<TRIPOS>SUBSTRUCTURE
       1 MOL1            1 RESIDUE      1      MOL     
@<SCITEGIC>MOL_PROPERTY
VConf Rank
SciTegic.value.IntegerValue
181

@<SCITEGIC>MOL_PROPERTY
Conf_Id
SciTegic.value.IntegerValue
0

@<SCITEGIC>MOL_PROPERTY
Delta U+W
SciTegic.value.DoubleValue
0.000

@<SCITEGIC>MOL_PROPERTY
U+W
SciTegic.value.DoubleValue
-53.159

@<SCITEGIC>MOL_PROPERTY
Grad RMS
SciTegic.value.DoubleValue
0.000000

@<SCITEGIC>MOL_PROPERTY
U
SciTegic.value.DoubleValue
6.763

@<SCITEGIC>MOL_PROPERTY
W
SciTegic.value.DoubleValue
-59.922

@<SCITEGIC>MOL_PROPERTY
W(PB)
SciTegic.value.DoubleValue
-62.256

@<SCITEGIC>MOL_PROPERTY
W(SA)
SciTegic.value.DoubleValue
2.334

@<SCITEGIC>MOL_PROPERTY
Valence
SciTegic.value.DoubleValue
7.600

@<SCITEGIC>MOL_PROPERTY
Coulomb
SciTegic.value.DoubleValue
-2.139

@<SCITEGIC>MOL_PROPERTY
VdW
SciTegic.value.DoubleValue
1.302

@<SCITEGIC>MOL_PROPERTY
VdW6
SciTegic.value.DoubleValue
-6.786

@<SCITEGIC>MOL_PROPERTY
VdW12
SciTegic.value.DoubleValue
8.088

@<SCITEGIC>MOL_PROPERTY
Bond
SciTegic.value.DoubleValue
0.134

@<SCITEGIC>MOL_PROPERTY
Angle
SciTegic.value.DoubleValue
2.720

@<SCITEGIC>MOL_PROPERTY
Pdih
SciTegic.value.DoubleValue
4.746

@<SCITEGIC>MOL_PROPERTY
Idih
SciTegic.value.DoubleValue
0.000

@<SCITEGIC>MOL_PROPERTY
Tether
SciTegic.value.DoubleValue
0.000

@<TRIPOS>MOLECULE
guest-s21_confgen4.mol2 : confsearch ligand conformer 182
          22          21           1
SMALL
USER_CHARGES
 
@<TRIPOS>ATOM
       1    C1      20.708227   17.025635   25.564618 C.2        1 MOL1         0.6145
       2    O1      21.679498   16.300478   25.479702 O.co2      1 MOL1        -0.6735
       3    O2      19.752537   16.789973   26.277044 O.co2      1 MOL1        -0.6735
       4    C2      20.677079   18.289890   24.713206 C.3        1 MOL1        -0.1985
       5    H1      21.706085   18.653423   24.605252 H          1 MOL1         0.0740
       6    H2      20.118181   19.056990   25.262616 H          1 MOL1         0.0740
       7    C3      20.041992   18.061220   23.319497 C.3        1 MOL1        -0.1882
       8    H3      20.604960   17.281599   22.787679 H          1 MOL1         0.0742
       9    H4      19.017106   17.685155   23.445022 H          1 MOL1         0.0742
      10    C4      20.022281   19.355229   22.477457 C.3        1 MOL1        -0.1880
      11    H5      21.048119   19.729148   22.354921 H          1 MOL1         0.0742
      12    H6      19.459887   20.132829   23.012456 H          1 MOL1         0.0742
      13    C5      19.388648   19.124239   21.088773 C.3        1 MOL1        -0.1880
      14    H7      19.950759   18.346686   20.553454 H          1 MOL1         0.0742
      15    H8      18.362789   18.750299   21.210876 H          1 MOL1         0.0742
      16    C6      19.368589   20.417070   20.246599 C.3        1 MOL1        -0.1856
      17    H9      20.393366   20.793134   20.120569 H          1 MOL1         0.0742
      18    H10     18.805405   21.196761   20.777996 H          1 MOL1         0.0742
      19    C7      18.735103   20.182230   18.860638 C.3        1 MOL1        -0.2871
      20    H11     17.697853   19.835355   18.956538 H          1 MOL1         0.0754
      21    H12     19.297716   19.428544   18.294220 H          1 MOL1         0.0754
      22    H13     18.729098   21.111094   18.275600 H          1 MOL1         0.0754
@<TRIPOS>BOND
    1     1     2    1
    2     1     3    2
    3     1     4    1
    4     4     5    1
    5     4     6    1
    6     4     7    1
    7     7     8    1
    8     7     9    1
    9     7    10    1
   10    10    11    1
   11    10    12    1
   12    10    13    1
   13    13    14    1
   14    13    15    1
   15    13    16    1
   16    16    17    1
   17    16    18    1
   18    16    19    1
   19    19    20    1
   20    19    21    1
   21    19    22    1
@<TRIPOS>SUBSTRUCTURE
       1 MOL1            1 RESIDUE      1      MOL     
@<SCITEGIC>MOL_PROPERTY
VConf Rank
SciTegic.value.IntegerValue
182

@<SCITEGIC>MOL_PROPERTY
Conf_Id
SciTegic.value.IntegerValue
10

@<SCITEGIC>MOL_PROPERTY
Delta U+W
SciTegic.value.DoubleValue
-1.291

@<SCITEGIC>MOL_PROPERTY
U+W
SciTegic.value.DoubleValue
-54.451

@<SCITEGIC>MOL_PROPERTY
Grad RMS
SciTegic.value.DoubleValue
0.000000

@<SCITEGIC>MOL_PROPERTY
U
SciTegic.value.DoubleValue
5.779

@<SCITEGIC>MOL_PROPERTY
W
SciTegic.value.DoubleValue
-60.230

@<SCITEGIC>MOL_PROPERTY
W(PB)
SciTegic.value.DoubleValue
-62.557

@<SCITEGIC>MOL_PROPERTY
W(SA)
SciTegic.value.DoubleValue
2.328

@<SCITEGIC>MOL_PROPERTY
Valence
SciTegic.value.DoubleValue
7.101

@<SCITEGIC>MOL_PROPERTY
Coulomb
SciTegic.value.DoubleValue
-2.079

@<SCITEGIC>MOL_PROPERTY
VdW
SciTegic.value.DoubleValue
0.757

@<SCITEGIC>MOL_PROPERTY
VdW6
SciTegic.value.DoubleValue
-6.496

@<SCITEGIC>MOL_PROPERTY
VdW12
SciTegic.value.DoubleValue
7.253

@<SCITEGIC>MOL_PROPERTY
Bond
SciTegic.value.DoubleValue
0.100

@<SCITEGIC>MOL_PROPERTY
Angle
SciTegic.value.DoubleValue
2.262

@<SCITEGIC>MOL_PROPERTY
Pdih
SciTegic.value.DoubleValue
4.738

@<SCITEGIC>MOL_PROPERTY
Idih
SciTegic.value.DoubleValue
0.001

@<SCITEGIC>MOL_PROPERTY
Tether
SciTegic.value.DoubleValue
0.000

@<TRIPOS>MOLECULE
guest-s21_confgen4.mol2 : confsearch ligand conformer 183
          22          21           1
SMALL
USER_CHARGES
 
@<TRIPOS>ATOM
       1    C1      20.970315   15.331423   23.184517 C.2        1 MOL1         0.6145
       2    O1      22.124409   15.093948   22.887659 O.co2      1 MOL1        -0.6735
       3    O2      20.382339   14.780561   24.094074 O.co2      1 MOL1        -0.6735
       4    C2      20.225373   16.394441   22.384978 C.3        1 MOL1        -0.1985
       5    H1      19.165953   16.113451   22.348649 H          1 MOL1         0.0740
       6    H2      20.602068   16.372609   21.355279 H          1 MOL1         0.0740
       7    C3      20.381263   17.815176   22.981100 C.3        1 MOL1        -0.1882
       8    H3      20.012106   17.816559   24.016104 H          1 MOL1         0.0742
       9    H4      21.447822   18.076529   23.022294 H          1 MOL1         0.0742
      10    C4      19.618316   18.872574   22.153956 C.3        1 MOL1        -0.1880
      11    H5      18.552277   18.609903   22.116265 H          1 MOL1         0.0742
      12    H6      19.989640   18.857771   21.120968 H          1 MOL1         0.0742
      13    C5      19.780104   20.289489   22.750979 C.3        1 MOL1        -0.1880
      14    H7      19.470677   20.270719   23.804941 H          1 MOL1         0.0742
      15    H8      20.840746   20.575695   22.743183 H          1 MOL1         0.0742
      16    C6      18.948810   21.365549   22.014535 C.3        1 MOL1        -0.1856
      17    H9      19.026436   22.311162   22.568634 H          1 MOL1         0.0742
      18    H10     17.886306   21.085785   22.025773 H          1 MOL1         0.0742
      19    C7      19.408050   21.603143   20.559592 C.3        1 MOL1        -0.2871
      20    H11     18.848153   22.434109   20.111340 H          1 MOL1         0.0754
      21    H12     19.240463   20.715828   19.936463 H          1 MOL1         0.0754
      22    H13     20.475797   21.855221   20.520771 H          1 MOL1         0.0754
@<TRIPOS>BOND
    1     1     2    1
    2     1     3    2
    3     1     4    1
    4     4     5    1
    5     4     6    1
    6     4     7    1
    7     7     8    1
    8     7     9    1
    9     7    10    1
   10    10    11    1
   11    10    12    1
   12    10    13    1
   13    13    14    1
   14    13    15    1
   15    13    16    1
   16    16    17    1
   17    16    18    1
   18    16    19    1
   19    19    20    1
   20    19    21    1
   21    19    22    1
@<TRIPOS>SUBSTRUCTURE
       1 MOL1            1 RESIDUE      1      MOL     
@<SCITEGIC>MOL_PROPERTY
VConf Rank
SciTegic.value.IntegerValue
183

@<SCITEGIC>MOL_PROPERTY
Conf_Id
SciTegic.value.IntegerValue
37

@<SCITEGIC>MOL_PROPERTY
Delta U+W
SciTegic.value.DoubleValue
-0.345

@<SCITEGIC>MOL_PROPERTY
U+W
SciTegic.value.DoubleValue
-53.504

@<SCITEGIC>MOL_PROPERTY
Grad RMS
SciTegic.value.DoubleValue
0.000000

@<SCITEGIC>MOL_PROPERTY
U
SciTegic.value.DoubleValue
6.751

@<SCITEGIC>MOL_PROPERTY
W
SciTegic.value.DoubleValue
-60.255

@<SCITEGIC>MOL_PROPERTY
W(PB)
SciTegic.value.DoubleValue
-62.592

@<SCITEGIC>MOL_PROPERTY
W(SA)
SciTegic.value.DoubleValue
2.336

@<SCITEGIC>MOL_PROPERTY
Valence
SciTegic.value.DoubleValue
7.602

@<SCITEGIC>MOL_PROPERTY
Coulomb
SciTegic.value.DoubleValue
-1.744

@<SCITEGIC>MOL_PROPERTY
VdW
SciTegic.value.DoubleValue
0.894

@<SCITEGIC>MOL_PROPERTY
VdW6
SciTegic.value.DoubleValue
-7.110

@<SCITEGIC>MOL_PROPERTY
VdW12
SciTegic.value.DoubleValue
8.004

@<SCITEGIC>MOL_PROPERTY
Bond
SciTegic.value.DoubleValue
0.131

@<SCITEGIC>MOL_PROPERTY
Angle
SciTegic.value.DoubleValue
2.489

@<SCITEGIC>MOL_PROPERTY
Pdih
SciTegic.value.DoubleValue
4.982

@<SCITEGIC>MOL_PROPERTY
Idih
SciTegic.value.DoubleValue
0.001

@<SCITEGIC>MOL_PROPERTY
Tether
SciTegic.value.DoubleValue
0.000

@<TRIPOS>MOLECULE
guest-s21_confgen4.mol2 : confsearch ligand conformer 184
          22          21           1
SMALL
USER_CHARGES
 
@<TRIPOS>ATOM
       1    C1      17.513647   21.040853   24.611911 C.2        1 MOL1         0.6145
       2    O1      18.145859   21.735109   25.383122 O.co2      1 MOL1        -0.6735
       3    O2      16.402679   20.610137   24.850014 O.co2      1 MOL1        -0.6735
       4    C2      18.158844   20.671853   23.280832 C.3        1 MOL1        -0.1985
       5    H1      18.800854   21.505129   22.970780 H          1 MOL1         0.0740
       6    H2      17.363980   20.578617   22.531071 H          1 MOL1         0.0740
       7    C3      18.981349   19.361747   23.353386 C.3        1 MOL1        -0.1882
       8    H3      19.764768   19.466799   24.116777 H          1 MOL1         0.0742
       9    H4      18.327318   18.540599   23.678147 H          1 MOL1         0.0742
      10    C4      19.623744   19.010212   21.993937 C.3        1 MOL1        -0.1880
      11    H5      20.268771   19.839558   21.675673 H          1 MOL1         0.0742
      12    H6      18.838205   18.903643   21.233394 H          1 MOL1         0.0742
      13    C5      20.446795   17.703821   22.072631 C.3        1 MOL1        -0.1880
      14    H7      21.264924   17.824621   22.795825 H          1 MOL1         0.0742
      15    H8      19.805537   16.900144   22.459705 H          1 MOL1         0.0742
      16    C6      21.023773   17.257578   20.709079 C.3        1 MOL1        -0.1856
      17    H9      20.207563   17.129449   19.984720 H          1 MOL1         0.0742
      18    H10     21.489313   16.269676   20.829734 H          1 MOL1         0.0742
      19    C7      22.074381   18.235733   20.140180 C.3        1 MOL1        -0.2871
      20    H11     22.886110   18.402871   20.860107 H          1 MOL1         0.0754
      21    H12     21.626365   19.206569   19.894288 H          1 MOL1         0.0754
      22    H13     22.516447   17.831630   19.220289 H          1 MOL1         0.0754
@<TRIPOS>BOND
    1     1     2    1
    2     1     3    2
    3     1     4    1
    4     4     5    1
    5     4     6    1
    6     4     7    1
    7     7     8    1
    8     7     9    1
    9     7    10    1
   10    10    11    1
   11    10    12    1
   12    10    13    1
   13    13    14    1
   14    13    15    1
   15    13    16    1
   16    16    17    1
   17    16    18    1
   18    16    19    1
   19    19    20    1
   20    19    21    1
   21    19    22    1
@<TRIPOS>SUBSTRUCTURE
       1 MOL1            1 RESIDUE      1      MOL     
@<SCITEGIC>MOL_PROPERTY
VConf Rank
SciTegic.value.IntegerValue
184

@<SCITEGIC>MOL_PROPERTY
Conf_Id
SciTegic.value.IntegerValue
38

@<SCITEGIC>MOL_PROPERTY
Delta U+W
SciTegic.value.DoubleValue
-0.439

@<SCITEGIC>MOL_PROPERTY
U+W
SciTegic.value.DoubleValue
-53.598

@<SCITEGIC>MOL_PROPERTY
Grad RMS
SciTegic.value.DoubleValue
0.000000

@<SCITEGIC>MOL_PROPERTY
U
SciTegic.value.DoubleValue
6.751

@<SCITEGIC>MOL_PROPERTY
W
SciTegic.value.DoubleValue
-60.350

@<SCITEGIC>MOL_PROPERTY
W(PB)
SciTegic.value.DoubleValue
-62.659

@<SCITEGIC>MOL_PROPERTY
W(SA)
SciTegic.value.DoubleValue
2.309

@<SCITEGIC>MOL_PROPERTY
Valence
SciTegic.value.DoubleValue
7.602

@<SCITEGIC>MOL_PROPERTY
Coulomb
SciTegic.value.DoubleValue
-1.744

@<SCITEGIC>MOL_PROPERTY
VdW
SciTegic.value.DoubleValue
0.893

@<SCITEGIC>MOL_PROPERTY
VdW6
SciTegic.value.DoubleValue
-7.110

@<SCITEGIC>MOL_PROPERTY
VdW12
SciTegic.value.DoubleValue
8.004

@<SCITEGIC>MOL_PROPERTY
Bond
SciTegic.value.DoubleValue
0.131

@<SCITEGIC>MOL_PROPERTY
Angle
SciTegic.value.DoubleValue
2.489

@<SCITEGIC>MOL_PROPERTY
Pdih
SciTegic.value.DoubleValue
4.981

@<SCITEGIC>MOL_PROPERTY
Idih
SciTegic.value.DoubleValue
0.001

@<SCITEGIC>MOL_PROPERTY
Tether
SciTegic.value.DoubleValue
0.000

@<TRIPOS>MOLECULE
guest-s21_confgen4.mol2 : confsearch ligand conformer 185
          22          21           1
SMALL
USER_CHARGES
 
@<TRIPOS>ATOM
       1    C1      20.956758   19.892590   25.728632 C.2        1 MOL1         0.6145
       2    O1      21.267282   19.066513   26.563935 O.co2      1 MOL1        -0.6735
       3    O2      20.612785   21.026212   25.999032 O.co2      1 MOL1        -0.6735
       4    C2      20.978211   19.476744   24.262037 C.3        1 MOL1        -0.1985
       5    H1      21.774337   18.734190   24.130838 H          1 MOL1         0.0740
       6    H2      21.253443   20.357224   23.670882 H          1 MOL1         0.0740
       7    C3      19.621613   18.896936   23.783419 C.3        1 MOL1        -0.1882
       8    H3      19.331448   18.079952   24.458541 H          1 MOL1         0.0742
       9    H4      18.841155   19.665087   23.873551 H          1 MOL1         0.0742
      10    C4      19.655186   18.352583   22.335223 C.3        1 MOL1        -0.1880
      11    H5      18.703544   17.841003   22.142885 H          1 MOL1         0.0742
      12    H6      20.441909   17.591097   22.246500 H          1 MOL1         0.0742
      13    C5      19.871332   19.454288   21.268664 C.3        1 MOL1        -0.1880
      14    H7      19.085557   20.216623   21.358684 H          1 MOL1         0.0742
      15    H8      20.824084   19.964684   21.457978 H          1 MOL1         0.0742
      16    C6      19.900413   18.910315   19.821126 C.3        1 MOL1        -0.1856
      17    H9      20.677653   18.139047   19.729832 H          1 MOL1         0.0742
      18    H10     20.192368   19.725908   19.145245 H          1 MOL1         0.0742
      19    C7      18.544097   18.340626   19.351535 C.3        1 MOL1        -0.2871
      20    H11     18.266088   17.444575   19.920066 H          1 MOL1         0.0754
      21    H12     18.593092   18.058550   18.291842 H          1 MOL1         0.0754
      22    H13     17.744604   19.084088   19.466428 H          1 MOL1         0.0754
@<TRIPOS>BOND
    1     1     2    1
    2     1     3    2
    3     1     4    1
    4     4     5    1
    5     4     6    1
    6     4     7    1
    7     7     8    1
    8     7     9    1
    9     7    10    1
   10    10    11    1
   11    10    12    1
   12    10    13    1
   13    13    14    1
   14    13    15    1
   15    13    16    1
   16    16    17    1
   17    16    18    1
   18    16    19    1
   19    19    20    1
   20    19    21    1
   21    19    22    1
@<TRIPOS>SUBSTRUCTURE
       1 MOL1            1 RESIDUE      1      MOL     
@<SCITEGIC>MOL_PROPERTY
VConf Rank
SciTegic.value.IntegerValue
185

@<SCITEGIC>MOL_PROPERTY
Conf_Id
SciTegic.value.IntegerValue
60

@<SCITEGIC>MOL_PROPERTY
Delta U+W
SciTegic.value.DoubleValue
0.386

@<SCITEGIC>MOL_PROPERTY
U+W
SciTegic.value.DoubleValue
-52.773

@<SCITEGIC>MOL_PROPERTY
Grad RMS
SciTegic.value.DoubleValue
0.000000

@<SCITEGIC>MOL_PROPERTY
U
SciTegic.value.DoubleValue
7.689

@<SCITEGIC>MOL_PROPERTY
W
SciTegic.value.DoubleValue
-60.463

@<SCITEGIC>MOL_PROPERTY
W(PB)
SciTegic.value.DoubleValue
-62.772

@<SCITEGIC>MOL_PROPERTY
W(SA)
SciTegic.value.DoubleValue
2.309

@<SCITEGIC>MOL_PROPERTY
Valence
SciTegic.value.DoubleValue
8.197

@<SCITEGIC>MOL_PROPERTY
Coulomb
SciTegic.value.DoubleValue
-1.561

@<SCITEGIC>MOL_PROPERTY
VdW
SciTegic.value.DoubleValue
1.053

@<SCITEGIC>MOL_PROPERTY
VdW6
SciTegic.value.DoubleValue
-7.737

@<SCITEGIC>MOL_PROPERTY
VdW12
SciTegic.value.DoubleValue
8.790

@<SCITEGIC>MOL_PROPERTY
Bond
SciTegic.value.DoubleValue
0.181

@<SCITEGIC>MOL_PROPERTY
Angle
SciTegic.value.DoubleValue
2.780

@<SCITEGIC>MOL_PROPERTY
Pdih
SciTegic.value.DoubleValue
5.235

@<SCITEGIC>MOL_PROPERTY
Idih
SciTegic.value.DoubleValue
0.001

@<SCITEGIC>MOL_PROPERTY
Tether
SciTegic.value.DoubleValue
0.000

@<TRIPOS>MOLECULE
guest-s21_confgen4.mol2 : confsearch ligand conformer 186
          22          21           1
SMALL
USER_CHARGES
 
@<TRIPOS>ATOM
       1    C1      19.101672   15.568376   20.711798 C.2        1 MOL1         0.6145
       2    O1      18.147453   15.651798   19.964108 O.co2      1 MOL1        -0.6735
       3    O2      19.507818   14.518595   21.169580 O.co2      1 MOL1        -0.6735
       4    C2      19.814795   16.853862   21.115864 C.3        1 MOL1        -0.1985
       5    H1      19.760866   17.544748   20.267200 H          1 MOL1         0.0740
       6    H2      20.873498   16.618757   21.278001 H          1 MOL1         0.0740
       7    C3      19.209285   17.500582   22.388941 C.3        1 MOL1        -0.1882
       8    H3      18.162849   17.776572   22.198951 H          1 MOL1         0.0742
       9    H4      19.190658   16.748332   23.189702 H          1 MOL1         0.0742
      10    C4      19.993567   18.736666   22.890656 C.3        1 MOL1        -0.1880
      11    H5      21.040917   18.459296   23.071741 H          1 MOL1         0.0742
      12    H6      19.577040   19.031372   23.862242 H          1 MOL1         0.0742
      13    C5      19.932178   19.940490   21.918515 C.3        1 MOL1        -0.1880
      14    H7      20.351295   19.648121   20.947464 H          1 MOL1         0.0742
      15    H8      18.884707   20.216544   21.736034 H          1 MOL1         0.0742
      16    C6      20.712405   21.177156   22.422515 C.3        1 MOL1        -0.1856
      17    H9      20.733640   21.929305   21.621849 H          1 MOL1         0.0742
      18    H10     21.758276   20.902338   22.617256 H          1 MOL1         0.0742
      19    C7      20.098520   21.817699   23.686439 C.3        1 MOL1        -0.2871
      20    H11     19.042087   22.069326   23.525951 H          1 MOL1         0.0754
      21    H12     20.630471   22.742591   23.944359 H          1 MOL1         0.0754
      22    H13     20.165455   21.145354   24.550671 H          1 MOL1         0.0754
@<TRIPOS>BOND
    1     1     2    1
    2     1     3    2
    3     1     4    1
    4     4     5    1
    5     4     6    1
    6     4     7    1
    7     7     8    1
    8     7     9    1
    9     7    10    1
   10    10    11    1
   11    10    12    1
   12    10    13    1
   13    13    14    1
   14    13    15    1
   15    13    16    1
   16    16    17    1
   17    16    18    1
   18    16    19    1
   19    19    20    1
   20    19    21    1
   21    19    22    1
@<TRIPOS>SUBSTRUCTURE
       1 MOL1            1 RESIDUE      1      MOL     
@<SCITEGIC>MOL_PROPERTY
VConf Rank
SciTegic.value.IntegerValue
186

@<SCITEGIC>MOL_PROPERTY
Conf_Id
SciTegic.value.IntegerValue
28

@<SCITEGIC>MOL_PROPERTY
Delta U+W
SciTegic.value.DoubleValue
0.351

@<SCITEGIC>MOL_PROPERTY
U+W
SciTegic.value.DoubleValue
-52.808

@<SCITEGIC>MOL_PROPERTY
Grad RMS
SciTegic.value.DoubleValue
0.000000

@<SCITEGIC>MOL_PROPERTY
U
SciTegic.value.DoubleValue
7.689

@<SCITEGIC>MOL_PROPERTY
W
SciTegic.value.DoubleValue
-60.498

@<SCITEGIC>MOL_PROPERTY
W(PB)
SciTegic.value.DoubleValue
-62.768

@<SCITEGIC>MOL_PROPERTY
W(SA)
SciTegic.value.DoubleValue
2.270

@<SCITEGIC>MOL_PROPERTY
Valence
SciTegic.value.DoubleValue
8.197

@<SCITEGIC>MOL_PROPERTY
Coulomb
SciTegic.value.DoubleValue
-1.561

@<SCITEGIC>MOL_PROPERTY
VdW
SciTegic.value.DoubleValue
1.053

@<SCITEGIC>MOL_PROPERTY
VdW6
SciTegic.value.DoubleValue
-7.737

@<SCITEGIC>MOL_PROPERTY
VdW12
SciTegic.value.DoubleValue
8.791

@<SCITEGIC>MOL_PROPERTY
Bond
SciTegic.value.DoubleValue
0.181

@<SCITEGIC>MOL_PROPERTY
Angle
SciTegic.value.DoubleValue
2.780

@<SCITEGIC>MOL_PROPERTY
Pdih
SciTegic.value.DoubleValue
5.235

@<SCITEGIC>MOL_PROPERTY
Idih
SciTegic.value.DoubleValue
0.001

@<SCITEGIC>MOL_PROPERTY
Tether
SciTegic.value.DoubleValue
0.000

@<TRIPOS>MOLECULE
guest-s21_confgen4.mol2 : confsearch ligand conformer 187
          22          21           1
SMALL
USER_CHARGES
 
@<TRIPOS>ATOM
       1    C1      19.651852   15.693527   20.350976 C.2        1 MOL1         0.6145
       2    O1      19.888750   14.668394   20.958801 O.co2      1 MOL1        -0.6735
       3    O2      18.734636   15.812020   19.562857 O.co2      1 MOL1        -0.6735
       4    C2      20.542723   16.904107   20.606255 C.3        1 MOL1        -0.1985
       5    H1      20.601880   17.485459   19.678258 H          1 MOL1         0.0740
       6    H2      21.554012   16.542074   20.827262 H          1 MOL1         0.0740
       7    C3      20.028672   17.796036   21.763190 C.3        1 MOL1        -0.1882
       8    H3      19.009119   18.128802   21.528146 H          1 MOL1         0.0742
       9    H4      19.966666   17.197460   22.682520 H          1 MOL1         0.0742
      10    C4      20.947436   19.017626   21.996968 C.3        1 MOL1        -0.1880
      11    H5      20.967666   19.644430   21.094917 H          1 MOL1         0.0742
      12    H6      21.976204   18.665561   22.153974 H          1 MOL1         0.0742
      13    C5      20.532672   19.876579   23.215053 C.3        1 MOL1        -0.1880
      14    H7      20.516252   19.251056   24.118038 H          1 MOL1         0.0742
      15    H8      21.304312   20.640790   23.380826 H          1 MOL1         0.0742
      16    C6      19.165163   20.574867   23.040106 C.3        1 MOL1        -0.1856
      17    H9      18.366714   19.826619   22.950868 H          1 MOL1         0.0742
      18    H10     19.163452   21.158695   22.109328 H          1 MOL1         0.0742
      19    C7      18.849394   21.505220   24.228570 C.3        1 MOL1        -0.2871
      20    H11     19.609026   22.292016   24.324838 H          1 MOL1         0.0754
      21    H12     18.817808   20.941786   25.170339 H          1 MOL1         0.0754
      22    H13     17.874487   21.990767   24.091199 H          1 MOL1         0.0754
@<TRIPOS>BOND
    1     1     2    1
    2     1     3    2
    3     1     4    1
    4     4     5    1
    5     4     6    1
    6     4     7    1
    7     7     8    1
    8     7     9    1
    9     7    10    1
   10    10    11    1
   11    10    12    1
   12    10    13    1
   13    13    14    1
   14    13    15    1
   15    13    16    1
   16    16    17    1
   17    16    18    1
   18    16    19    1
   19    19    20    1
   20    19    21    1
   21    19    22    1
@<TRIPOS>SUBSTRUCTURE
       1 MOL1            1 RESIDUE      1      MOL     
@<SCITEGIC>MOL_PROPERTY
VConf Rank
SciTegic.value.IntegerValue
187

@<SCITEGIC>MOL_PROPERTY
Conf_Id
SciTegic.value.IntegerValue
50

@<SCITEGIC>MOL_PROPERTY
Delta U+W
SciTegic.value.DoubleValue
-0.486

@<SCITEGIC>MOL_PROPERTY
U+W
SciTegic.value.DoubleValue
-53.646

@<SCITEGIC>MOL_PROPERTY
Grad RMS
SciTegic.value.DoubleValue
0.000000

@<SCITEGIC>MOL_PROPERTY
U
SciTegic.value.DoubleValue
7.026

@<SCITEGIC>MOL_PROPERTY
W
SciTegic.value.DoubleValue
-60.672

@<SCITEGIC>MOL_PROPERTY
W(PB)
SciTegic.value.DoubleValue
-62.964

@<SCITEGIC>MOL_PROPERTY
W(SA)
SciTegic.value.DoubleValue
2.292

@<SCITEGIC>MOL_PROPERTY
Valence
SciTegic.value.DoubleValue
7.637

@<SCITEGIC>MOL_PROPERTY
Coulomb
SciTegic.value.DoubleValue
-1.488

@<SCITEGIC>MOL_PROPERTY
VdW
SciTegic.value.DoubleValue
0.877

@<SCITEGIC>MOL_PROPERTY
VdW6
SciTegic.value.DoubleValue
-7.165

@<SCITEGIC>MOL_PROPERTY
VdW12
SciTegic.value.DoubleValue
8.043

@<SCITEGIC>MOL_PROPERTY
Bond
SciTegic.value.DoubleValue
0.134

@<SCITEGIC>MOL_PROPERTY
Angle
SciTegic.value.DoubleValue
2.513

@<SCITEGIC>MOL_PROPERTY
Pdih
SciTegic.value.DoubleValue
4.990

@<SCITEGIC>MOL_PROPERTY
Idih
SciTegic.value.DoubleValue
0.001

@<SCITEGIC>MOL_PROPERTY
Tether
SciTegic.value.DoubleValue
0.000

@<TRIPOS>MOLECULE
guest-s21_confgen4.mol2 : confsearch ligand conformer 188
          22          21           1
SMALL
USER_CHARGES
 
@<TRIPOS>ATOM
       1    C1      22.474614   21.504568   22.814631 C.2        1 MOL1         0.6145
       2    O1      23.602612   21.153652   22.530114 O.co2      1 MOL1        -0.6735
       3    O2      22.198345   22.135197   23.815849 O.co2      1 MOL1        -0.6735
       4    C2      21.340346   21.114356   21.873623 C.3        1 MOL1        -0.1985
       5    H1      21.737137   21.095774   20.851455 H          1 MOL1         0.0740
       6    H2      20.579256   21.902981   21.911859 H          1 MOL1         0.0740
       7    C3      20.708906   19.745344   22.227727 C.3        1 MOL1        -0.1882
       8    H3      21.485087   18.968363   22.193864 H          1 MOL1         0.0742
       9    H4      20.337719   19.782630   23.260345 H          1 MOL1         0.0742
      10    C4      19.559497   19.377035   21.261148 C.3        1 MOL1        -0.1880
      11    H5      19.933423   19.420518   20.229038 H          1 MOL1         0.0742
      12    H6      18.759440   20.126455   21.333729 H          1 MOL1         0.0742
      13    C5      18.972593   17.967406   21.510245 C.3        1 MOL1        -0.1880
      14    H7      18.257087   17.741632   20.707746 H          1 MOL1         0.0742
      15    H8      19.771591   17.217276   21.433837 H          1 MOL1         0.0742
      16    C6      18.257091   17.829435   22.873077 C.3        1 MOL1        -0.1856
      17    H9      17.493211   18.612996   22.971699 H          1 MOL1         0.0742
      18    H10     18.972909   17.974330   23.692814 H          1 MOL1         0.0742
      19    C7      17.593846   16.445776   23.025767 C.3        1 MOL1        -0.2871
      20    H11     18.340142   15.643343   22.958471 H          1 MOL1         0.0754
      21    H12     16.841900   16.281461   22.242865 H          1 MOL1         0.0754
      22    H13     17.093115   16.362230   23.999090 H          1 MOL1         0.0754
@<TRIPOS>BOND
    1     1     2    1
    2     1     3    2
    3     1     4    1
    4     4     5    1
    5     4     6    1
    6     4     7    1
    7     7     8    1
    8     7     9    1
    9     7    10    1
   10    10    11    1
   11    10    12    1
   12    10    13    1
   13    13    14    1
   14    13    15    1
   15    13    16    1
   16    16    17    1
   17    16    18    1
   18    16    19    1
   19    19    20    1
   20    19    21    1
   21    19    22    1
@<TRIPOS>SUBSTRUCTURE
       1 MOL1            1 RESIDUE      1      MOL     
@<SCITEGIC>MOL_PROPERTY
VConf Rank
SciTegic.value.IntegerValue
188

@<SCITEGIC>MOL_PROPERTY
Conf_Id
SciTegic.value.IntegerValue
51

@<SCITEGIC>MOL_PROPERTY
Delta U+W
SciTegic.value.DoubleValue
-0.517

@<SCITEGIC>MOL_PROPERTY
U+W
SciTegic.value.DoubleValue
-53.677

@<SCITEGIC>MOL_PROPERTY
Grad RMS
SciTegic.value.DoubleValue
0.000000

@<SCITEGIC>MOL_PROPERTY
U
SciTegic.value.DoubleValue
7.026

@<SCITEGIC>MOL_PROPERTY
W
SciTegic.value.DoubleValue
-60.703

@<SCITEGIC>MOL_PROPERTY
W(PB)
SciTegic.value.DoubleValue
-63.007

@<SCITEGIC>MOL_PROPERTY
W(SA)
SciTegic.value.DoubleValue
2.304

@<SCITEGIC>MOL_PROPERTY
Valence
SciTegic.value.DoubleValue
7.638

@<SCITEGIC>MOL_PROPERTY
Coulomb
SciTegic.value.DoubleValue
-1.488

@<SCITEGIC>MOL_PROPERTY
VdW
SciTegic.value.DoubleValue
0.877

@<SCITEGIC>MOL_PROPERTY
VdW6
SciTegic.value.DoubleValue
-7.165

@<SCITEGIC>MOL_PROPERTY
VdW12
SciTegic.value.DoubleValue
8.042

@<SCITEGIC>MOL_PROPERTY
Bond
SciTegic.value.DoubleValue
0.134

@<SCITEGIC>MOL_PROPERTY
Angle
SciTegic.value.DoubleValue
2.513

@<SCITEGIC>MOL_PROPERTY
Pdih
SciTegic.value.DoubleValue
4.990

@<SCITEGIC>MOL_PROPERTY
Idih
SciTegic.value.DoubleValue
0.001

@<SCITEGIC>MOL_PROPERTY
Tether
SciTegic.value.DoubleValue
0.000

@<TRIPOS>MOLECULE
guest-s21_confgen4.mol2 : confsearch ligand conformer 189
          22          21           1
SMALL
USER_CHARGES
 
@<TRIPOS>ATOM
       1    C1      16.985577   17.727808   23.693459 C.2        1 MOL1         0.6145
       2    O1      16.795875   18.107053   24.832357 O.co2      1 MOL1        -0.6735
       3    O2      16.255773   18.005023   22.762154 O.co2      1 MOL1        -0.6735
       4    C2      18.196771   16.839274   23.423923 C.3        1 MOL1        -0.1985
       5    H1      18.042011   16.315253   22.472946 H          1 MOL1         0.0740
       6    H2      18.222435   16.073227   24.207859 H          1 MOL1         0.0740
       7    C3      19.546513   17.602607   23.401282 C.3        1 MOL1        -0.1882
       8    H3      19.673983   18.144685   24.348676 H          1 MOL1         0.0742
       9    H4      20.366748   16.874529   23.340792 H          1 MOL1         0.0742
      10    C4      19.651917   18.588310   22.216011 C.3        1 MOL1        -0.1880
      11    H5      18.844275   19.330701   22.279079 H          1 MOL1         0.0742
      12    H6      19.510752   18.043819   21.272286 H          1 MOL1         0.0742
      13    C5      21.014670   19.313508   22.194961 C.3        1 MOL1        -0.1880
      14    H7      21.155072   19.857775   23.138978 H          1 MOL1         0.0742
      15    H8      21.823895   18.573328   22.129023 H          1 MOL1         0.0742
      16    C6      21.120375   20.298635   21.012000 C.3        1 MOL1        -0.1856
      17    H9      20.313394   21.041760   21.075630 H          1 MOL1         0.0742
      18    H10     20.982085   19.757436   20.065722 H          1 MOL1         0.0742
      19    C7      22.482244   21.021385   20.994618 C.3        1 MOL1        -0.2871
      20    H11     22.633221   21.596956   21.917290 H          1 MOL1         0.0754
      21    H12     22.540038   21.717420   20.147694 H          1 MOL1         0.0754
      22    H13     23.307008   20.302934   20.899812 H          1 MOL1         0.0754
@<TRIPOS>BOND
    1     1     2    1
    2     1     3    2
    3     1     4    1
    4     4     5    1
    5     4     6    1
    6     4     7    1
    7     7     8    1
    8     7     9    1
    9     7    10    1
   10    10    11    1
   11    10    12    1
   12    10    13    1
   13    13    14    1
   14    13    15    1
   15    13    16    1
   16    16    17    1
   17    16    18    1
   18    16    19    1
   19    19    20    1
   20    19    21    1
   21    19    22    1
@<TRIPOS>SUBSTRUCTURE
       1 MOL1            1 RESIDUE      1      MOL     
@<SCITEGIC>MOL_PROPERTY
VConf Rank
SciTegic.value.IntegerValue
189

@<SCITEGIC>MOL_PROPERTY
Conf_Id
SciTegic.value.IntegerValue
43

@<SCITEGIC>MOL_PROPERTY
Delta U+W
SciTegic.value.DoubleValue
-0.129

@<SCITEGIC>MOL_PROPERTY
U+W
SciTegic.value.DoubleValue
-53.289

@<SCITEGIC>MOL_PROPERTY
Grad RMS
SciTegic.value.DoubleValue
0.000000

@<SCITEGIC>MOL_PROPERTY
U
SciTegic.value.DoubleValue
7.937

@<SCITEGIC>MOL_PROPERTY
W
SciTegic.value.DoubleValue
-61.225

@<SCITEGIC>MOL_PROPERTY
W(PB)
SciTegic.value.DoubleValue
-63.523

@<SCITEGIC>MOL_PROPERTY
W(SA)
SciTegic.value.DoubleValue
2.297

@<SCITEGIC>MOL_PROPERTY
Valence
SciTegic.value.DoubleValue
7.358

@<SCITEGIC>MOL_PROPERTY
Coulomb
SciTegic.value.DoubleValue
-0.022

@<SCITEGIC>MOL_PROPERTY
VdW
SciTegic.value.DoubleValue
0.601

@<SCITEGIC>MOL_PROPERTY
VdW6
SciTegic.value.DoubleValue
-7.363

@<SCITEGIC>MOL_PROPERTY
VdW12
SciTegic.value.DoubleValue
7.964

@<SCITEGIC>MOL_PROPERTY
Bond
SciTegic.value.DoubleValue
0.121

@<SCITEGIC>MOL_PROPERTY
Angle
SciTegic.value.DoubleValue
2.425

@<SCITEGIC>MOL_PROPERTY
Pdih
SciTegic.value.DoubleValue
4.811

@<SCITEGIC>MOL_PROPERTY
Idih
SciTegic.value.DoubleValue
0.000

@<SCITEGIC>MOL_PROPERTY
Tether
SciTegic.value.DoubleValue
0.000

@<TRIPOS>MOLECULE
guest-s21_confgen4.mol2 : confsearch ligand conformer 190
          22          21           1
SMALL
USER_CHARGES
 
@<TRIPOS>ATOM
       1    C1      18.317848   20.079175   19.327428 C.2        1 MOL1         0.6145
       2    O1      17.186881   19.667574   19.158896 O.co2      1 MOL1        -0.6735
       3    O2      19.251099   19.797021   18.602015 O.co2      1 MOL1        -0.6735
       4    C2      18.573957   21.016234   20.504483 C.3        1 MOL1        -0.1985
       5    H1      17.772848   21.764734   20.508065 H          1 MOL1         0.0740
       6    H2      19.511771   21.555834   20.324930 H          1 MOL1         0.0740
       7    C3      18.621865   20.302265   21.880329 C.3        1 MOL1        -0.1882
       8    H3      18.670432   21.060341   22.673742 H          1 MOL1         0.0742
       9    H4      17.687868   19.743765   22.033236 H          1 MOL1         0.0742
      10    C4      19.829957   19.348049   22.012901 C.3        1 MOL1        -0.1880
      11    H5      20.760154   19.908388   21.846262 H          1 MOL1         0.0742
      12    H6      19.779221   18.576073   21.232589 H          1 MOL1         0.0742
      13    C5      19.875451   18.672603   23.400403 C.3        1 MOL1        -0.1880
      14    H7      19.929104   19.442491   24.182357 H          1 MOL1         0.0742
      15    H8      18.944956   18.112444   23.566266 H          1 MOL1         0.0742
      16    C6      21.081228   17.718928   23.533271 C.3        1 MOL1        -0.1856
      17    H9      22.014064   18.276147   23.369601 H          1 MOL1         0.0742
      18    H10     21.029958   16.946223   22.753655 H          1 MOL1         0.0742
      19    C7      21.123010   17.045824   24.919829 C.3        1 MOL1        -0.2871
      20    H11     21.206133   17.795214   25.717889 H          1 MOL1         0.0754
      21    H12     21.985950   16.371654   24.996742 H          1 MOL1         0.0754
      22    H13     20.214631   16.455257   25.097255 H          1 MOL1         0.0754
@<TRIPOS>BOND
    1     1     2    1
    2     1     3    2
    3     1     4    1
    4     4     5    1
    5     4     6    1
    6     4     7    1
    7     7     8    1
    8     7     9    1
    9     7    10    1
   10    10    11    1
   11    10    12    1
   12    10    13    1
   13    13    14    1
   14    13    15    1
   15    13    16    1
   16    16    17    1
   17    16    18    1
   18    16    19    1
   19    19    20    1
   20    19    21    1
   21    19    22    1
@<TRIPOS>SUBSTRUCTURE
       1 MOL1            1 RESIDUE      1      MOL     
@<SCITEGIC>MOL_PROPERTY
VConf Rank
SciTegic.value.IntegerValue
190

@<SCITEGIC>MOL_PROPERTY
Conf_Id
SciTegic.value.IntegerValue
44

@<SCITEGIC>MOL_PROPERTY
Delta U+W
SciTegic.value.DoubleValue
-0.155

@<SCITEGIC>MOL_PROPERTY
U+W
SciTegic.value.DoubleValue
-53.314

@<SCITEGIC>MOL_PROPERTY
Grad RMS
SciTegic.value.DoubleValue
0.000000

@<SCITEGIC>MOL_PROPERTY
U
SciTegic.value.DoubleValue
7.937

@<SCITEGIC>MOL_PROPERTY
W
SciTegic.value.DoubleValue
-61.252

@<SCITEGIC>MOL_PROPERTY
W(PB)
SciTegic.value.DoubleValue
-63.556

@<SCITEGIC>MOL_PROPERTY
W(SA)
SciTegic.value.DoubleValue
2.304

@<SCITEGIC>MOL_PROPERTY
Valence
SciTegic.value.DoubleValue
7.358

@<SCITEGIC>MOL_PROPERTY
Coulomb
SciTegic.value.DoubleValue
-0.021

@<SCITEGIC>MOL_PROPERTY
VdW
SciTegic.value.DoubleValue
0.600

@<SCITEGIC>MOL_PROPERTY
VdW6
SciTegic.value.DoubleValue
-7.363

@<SCITEGIC>MOL_PROPERTY
VdW12
SciTegic.value.DoubleValue
7.964

@<SCITEGIC>MOL_PROPERTY
Bond
SciTegic.value.DoubleValue
0.121

@<SCITEGIC>MOL_PROPERTY
Angle
SciTegic.value.DoubleValue
2.425

@<SCITEGIC>MOL_PROPERTY
Pdih
SciTegic.value.DoubleValue
4.811

@<SCITEGIC>MOL_PROPERTY
Idih
SciTegic.value.DoubleValue
0.001

@<SCITEGIC>MOL_PROPERTY
Tether
SciTegic.value.DoubleValue
0.000

@<TRIPOS>MOLECULE
guest-s21_confgen4.mol2 : confsearch ligand conformer 191
          22          21           1
SMALL
USER_CHARGES
 
@<TRIPOS>ATOM
       1    C1      19.244573   15.917131   20.692450 C.2        1 MOL1         0.6145
       2    O1      18.064071   15.699072   20.503271 O.co2      1 MOL1        -0.6735
       3    O2      20.002660   15.116253   21.203101 O.co2      1 MOL1        -0.6735
       4    C2      19.807766   17.263588   20.246154 C.3        1 MOL1        -0.1985
       5    H1      19.428896   17.457743   19.235811 H          1 MOL1         0.0740
       6    H2      20.898194   17.178134   20.165196 H          1 MOL1         0.0740
       7    C3      19.431132   18.446447   21.176002 C.3        1 MOL1        -0.1882
       8    H3      19.745395   19.380822   20.693980 H          1 MOL1         0.0742
       9    H4      18.338228   18.494208   21.279358 H          1 MOL1         0.0742
      10    C4      20.086067   18.334783   22.573787 C.3        1 MOL1        -0.1880
      11    H5      21.179817   18.329708   22.471375 H          1 MOL1         0.0742
      12    H6      19.813419   17.370204   23.023498 H          1 MOL1         0.0742
      13    C5      19.661370   19.461277   23.545625 C.3        1 MOL1        -0.1880
      14    H7      18.567523   19.466117   23.647565 H          1 MOL1         0.0742
      15    H8      20.064745   19.231350   24.541278 H          1 MOL1         0.0742
      16    C6      20.151517   20.863306   23.118431 C.3        1 MOL1        -0.1856
      17    H9      19.695884   21.148482   22.161202 H          1 MOL1         0.0742
      18    H10     21.239096   20.844444   22.963481 H          1 MOL1         0.0742
      19    C7      19.803603   21.930145   24.176046 C.3        1 MOL1        -0.2871
      20    H11     18.718360   21.989377   24.331359 H          1 MOL1         0.0754
      21    H12     20.154910   22.920012   23.856971 H          1 MOL1         0.0754
      22    H13     20.275832   21.697550   25.139506 H          1 MOL1         0.0754
@<TRIPOS>BOND
    1     1     2    1
    2     1     3    2
    3     1     4    1
    4     4     5    1
    5     4     6    1
    6     4     7    1
    7     7     8    1
    8     7     9    1
    9     7    10    1
   10    10    11    1
   11    10    12    1
   12    10    13    1
   13    13    14    1
   14    13    15    1
   15    13    16    1
   16    16    17    1
   17    16    18    1
   18    16    19    1
   19    19    20    1
   20    19    21    1
   21    19    22    1
@<TRIPOS>SUBSTRUCTURE
       1 MOL1            1 RESIDUE      1      MOL     
@<SCITEGIC>MOL_PROPERTY
VConf Rank
SciTegic.value.IntegerValue
191

@<SCITEGIC>MOL_PROPERTY
Conf_Id
SciTegic.value.IntegerValue
53

@<SCITEGIC>MOL_PROPERTY
Delta U+W
SciTegic.value.DoubleValue
0.723

@<SCITEGIC>MOL_PROPERTY
U+W
SciTegic.value.DoubleValue
-52.436

@<SCITEGIC>MOL_PROPERTY
Grad RMS
SciTegic.value.DoubleValue
0.000000

@<SCITEGIC>MOL_PROPERTY
U
SciTegic.value.DoubleValue
8.587

@<SCITEGIC>MOL_PROPERTY
W
SciTegic.value.DoubleValue
-61.022

@<SCITEGIC>MOL_PROPERTY
W(PB)
SciTegic.value.DoubleValue
-63.285

@<SCITEGIC>MOL_PROPERTY
W(SA)
SciTegic.value.DoubleValue
2.263

@<SCITEGIC>MOL_PROPERTY
Valence
SciTegic.value.DoubleValue
7.933

@<SCITEGIC>MOL_PROPERTY
Coulomb
SciTegic.value.DoubleValue
-0.124

@<SCITEGIC>MOL_PROPERTY
VdW
SciTegic.value.DoubleValue
0.778

@<SCITEGIC>MOL_PROPERTY
VdW6
SciTegic.value.DoubleValue
-7.981

@<SCITEGIC>MOL_PROPERTY
VdW12
SciTegic.value.DoubleValue
8.759

@<SCITEGIC>MOL_PROPERTY
Bond
SciTegic.value.DoubleValue
0.160

@<SCITEGIC>MOL_PROPERTY
Angle
SciTegic.value.DoubleValue
2.698

@<SCITEGIC>MOL_PROPERTY
Pdih
SciTegic.value.DoubleValue
5.074

@<SCITEGIC>MOL_PROPERTY
Idih
SciTegic.value.DoubleValue
0.001

@<SCITEGIC>MOL_PROPERTY
Tether
SciTegic.value.DoubleValue
0.000

@<TRIPOS>MOLECULE
guest-s21_confgen4.mol2 : confsearch ligand conformer 192
          22          21           1
SMALL
USER_CHARGES
 
@<TRIPOS>ATOM
       1    C1      19.391562   19.145028   25.666718 C.2        1 MOL1         0.6145
       2    O1      18.229574   18.926116   25.946774 O.co2      1 MOL1        -0.6735
       3    O2      20.263684   19.310735   26.496493 O.co2      1 MOL1        -0.6735
       4    C2      19.781148   19.192380   24.193633 C.3        1 MOL1        -0.1985
       5    H1      20.619530   19.890641   24.084872 H          1 MOL1         0.0740
       6    H2      18.931463   19.606814   23.639548 H          1 MOL1         0.0740
       7    C3      20.165077   17.801239   23.629310 C.3        1 MOL1        -0.1882
       8    H3      20.922926   17.352010   24.286028 H          1 MOL1         0.0742
       9    H4      19.289186   17.139319   23.673276 H          1 MOL1         0.0742
      10    C4      20.722373   17.829845   22.183880 C.3        1 MOL1        -0.1880
      11    H5      21.000899   16.801261   21.916700 H          1 MOL1         0.0742
      12    H6      21.655015   18.409509   22.150343 H          1 MOL1         0.0742
      13    C5      19.726087   18.352171   21.117907 C.3        1 MOL1        -0.1880
      14    H7      19.873757   17.778288   20.192788 H          1 MOL1         0.0742
      15    H8      18.693609   18.155515   21.437715 H          1 MOL1         0.0742
      16    C6      19.911627   19.851294   20.787816 C.3        1 MOL1        -0.1856
      17    H9      20.930997   20.021980   20.415060 H          1 MOL1         0.0742
      18    H10     19.801767   20.462445   21.691580 H          1 MOL1         0.0742
      19    C7      18.896730   20.326753   19.728923 C.3        1 MOL1        -0.2871
      20    H11     19.008404   19.760401   18.795057 H          1 MOL1         0.0754
      21    H12     19.045638   21.390059   19.500363 H          1 MOL1         0.0754
      22    H13     17.866937   20.198064   20.087144 H          1 MOL1         0.0754
@<TRIPOS>BOND
    1     1     2    1
    2     1     3    2
    3     1     4    1
    4     4     5    1
    5     4     6    1
    6     4     7    1
    7     7     8    1
    8     7     9    1
    9     7    10    1
   10    10    11    1
   11    10    12    1
   12    10    13    1
   13    13    14    1
   14    13    15    1
   15    13    16    1
   16    16    17    1
   17    16    18    1
   18    16    19    1
   19    19    20    1
   20    19    21    1
   21    19    22    1
@<TRIPOS>SUBSTRUCTURE
       1 MOL1            1 RESIDUE      1      MOL     
@<SCITEGIC>MOL_PROPERTY
VConf Rank
SciTegic.value.IntegerValue
192

@<SCITEGIC>MOL_PROPERTY
Conf_Id
SciTegic.value.IntegerValue
5

@<SCITEGIC>MOL_PROPERTY
Delta U+W
SciTegic.value.DoubleValue
2.167

@<SCITEGIC>MOL_PROPERTY
U+W
SciTegic.value.DoubleValue
-50.993

@<SCITEGIC>MOL_PROPERTY
Grad RMS
SciTegic.value.DoubleValue
0.000000

@<SCITEGIC>MOL_PROPERTY
U
SciTegic.value.DoubleValue
10.045

@<SCITEGIC>MOL_PROPERTY
W
SciTegic.value.DoubleValue
-61.037

@<SCITEGIC>MOL_PROPERTY
W(PB)
SciTegic.value.DoubleValue
-63.303

@<SCITEGIC>MOL_PROPERTY
W(SA)
SciTegic.value.DoubleValue
2.266

@<SCITEGIC>MOL_PROPERTY
Valence
SciTegic.value.DoubleValue
10.100

@<SCITEGIC>MOL_PROPERTY
Coulomb
SciTegic.value.DoubleValue
-0.883

@<SCITEGIC>MOL_PROPERTY
VdW
SciTegic.value.DoubleValue
0.828

@<SCITEGIC>MOL_PROPERTY
VdW6
SciTegic.value.DoubleValue
-8.177

@<SCITEGIC>MOL_PROPERTY
VdW12
SciTegic.value.DoubleValue
9.005

@<SCITEGIC>MOL_PROPERTY
Bond
SciTegic.value.DoubleValue
0.182

@<SCITEGIC>MOL_PROPERTY
Angle
SciTegic.value.DoubleValue
2.988

@<SCITEGIC>MOL_PROPERTY
Pdih
SciTegic.value.DoubleValue
6.930

@<SCITEGIC>MOL_PROPERTY
Idih
SciTegic.value.DoubleValue
0.001

@<SCITEGIC>MOL_PROPERTY
Tether
SciTegic.value.DoubleValue
0.000

@<TRIPOS>MOLECULE
guest-s21_confgen4.mol2 : confsearch ligand conformer 193
          22          21           1
SMALL
USER_CHARGES
 
@<TRIPOS>ATOM
       1    C1      21.034713   15.805880   22.843304 C.2        1 MOL1         0.6145
       2    O1      20.491444   15.330380   23.820713 O.co2      1 MOL1        -0.6735
       3    O2      21.913296   15.242211   22.221249 O.co2      1 MOL1        -0.6735
       4    C2      20.606683   17.195604   22.385638 C.3        1 MOL1        -0.1985
       5    H1      19.537307   17.300275   22.600603 H          1 MOL1         0.0740
       6    H2      20.732528   17.250201   21.297767 H          1 MOL1         0.0740
       7    C3      21.408057   18.328134   23.075797 C.3        1 MOL1        -0.1882
       8    H3      21.206377   18.307001   24.155673 H          1 MOL1         0.0742
       9    H4      22.480960   18.121292   22.959532 H          1 MOL1         0.0742
      10    C4      21.118109   19.745446   22.520975 C.3        1 MOL1        -0.1880
      11    H5      21.410360   19.803922   21.463561 H          1 MOL1         0.0742
      12    H6      21.774973   20.448593   23.051126 H          1 MOL1         0.0742
      13    C5      19.654771   20.222689   22.701505 C.3        1 MOL1        -0.1880
      14    H7      19.205255   19.738218   23.579107 H          1 MOL1         0.0742
      15    H8      19.664256   21.299614   22.918613 H          1 MOL1         0.0742
      16    C6      18.776188   19.992848   21.450096 C.3        1 MOL1        -0.1856
      17    H9      18.761634   18.930737   21.177935 H          1 MOL1         0.0742
      18    H10     19.207559   20.530576   20.594547 H          1 MOL1         0.0742
      19    C7      17.330076   20.476698   21.678090 C.3        1 MOL1        -0.2871
      20    H11     16.860958   19.932933   22.508515 H          1 MOL1         0.0754
      21    H12     16.721320   20.313501   20.779304 H          1 MOL1         0.0754
      22    H13     17.306648   21.548822   21.913324 H          1 MOL1         0.0754
@<TRIPOS>BOND
    1     1     2    1
    2     1     3    2
    3     1     4    1
    4     4     5    1
    5     4     6    1
    6     4     7    1
    7     7     8    1
    8     7     9    1
    9     7    10    1
   10    10    11    1
   11    10    12    1
   12    10    13    1
   13    13    14    1
   14    13    15    1
   15    13    16    1
   16    16    17    1
   17    16    18    1
   18    16    19    1
   19    19    20    1
   20    19    21    1
   21    19    22    1
@<TRIPOS>SUBSTRUCTURE
       1 MOL1            1 RESIDUE      1      MOL     
@<SCITEGIC>MOL_PROPERTY
VConf Rank
SciTegic.value.IntegerValue
193

@<SCITEGIC>MOL_PROPERTY
Conf_Id
SciTegic.value.IntegerValue
6

@<SCITEGIC>MOL_PROPERTY
Delta U+W
SciTegic.value.DoubleValue
2.118

@<SCITEGIC>MOL_PROPERTY
U+W
SciTegic.value.DoubleValue
-51.042

@<SCITEGIC>MOL_PROPERTY
Grad RMS
SciTegic.value.DoubleValue
0.000000

@<SCITEGIC>MOL_PROPERTY
U
SciTegic.value.DoubleValue
10.045

@<SCITEGIC>MOL_PROPERTY
W
SciTegic.value.DoubleValue
-61.086

@<SCITEGIC>MOL_PROPERTY
W(PB)
SciTegic.value.DoubleValue
-63.356

@<SCITEGIC>MOL_PROPERTY
W(SA)
SciTegic.value.DoubleValue
2.270

@<SCITEGIC>MOL_PROPERTY
Valence
SciTegic.value.DoubleValue
10.100

@<SCITEGIC>MOL_PROPERTY
Coulomb
SciTegic.value.DoubleValue
-0.883

@<SCITEGIC>MOL_PROPERTY
VdW
SciTegic.value.DoubleValue
0.828

@<SCITEGIC>MOL_PROPERTY
VdW6
SciTegic.value.DoubleValue
-8.177

@<SCITEGIC>MOL_PROPERTY
VdW12
SciTegic.value.DoubleValue
9.004

@<SCITEGIC>MOL_PROPERTY
Bond
SciTegic.value.DoubleValue
0.182

@<SCITEGIC>MOL_PROPERTY
Angle
SciTegic.value.DoubleValue
2.988

@<SCITEGIC>MOL_PROPERTY
Pdih
SciTegic.value.DoubleValue
6.930

@<SCITEGIC>MOL_PROPERTY
Idih
SciTegic.value.DoubleValue
0.001

@<SCITEGIC>MOL_PROPERTY
Tether
SciTegic.value.DoubleValue
0.000

@<TRIPOS>MOLECULE
guest-s21_confgen4.mol2 : confsearch ligand conformer 194
          22          21           1
SMALL
USER_CHARGES
 
@<TRIPOS>ATOM
       1    C1      18.873561   20.343249   24.812193 C.2        1 MOL1         0.6145
       2    O1      17.780906   20.814989   24.565085 O.co2      1 MOL1        -0.6735
       3    O2      19.884004   21.010679   24.915141 O.co2      1 MOL1        -0.6735
       4    C2      18.972188   18.842127   25.077450 C.3        1 MOL1        -0.1985
       5    H1      18.370681   18.647361   25.972876 H          1 MOL1         0.0740
       6    H2      20.008603   18.592908   25.335473 H          1 MOL1         0.0740
       7    C3      18.470387   17.929651   23.923040 C.3        1 MOL1        -0.1882
       8    H3      18.244128   16.941582   24.346065 H          1 MOL1         0.0742
       9    H4      17.519662   18.313905   23.528016 H          1 MOL1         0.0742
      10    C4      19.482446   17.727460   22.768152 C.3        1 MOL1        -0.1880
      11    H5      19.086141   16.952109   22.098266 H          1 MOL1         0.0742
      12    H6      20.427216   17.335511   23.168921 H          1 MOL1         0.0742
      13    C5      19.758614   19.003687   21.941421 C.3        1 MOL1        -0.1880
      14    H7      18.806600   19.452857   21.626838 H          1 MOL1         0.0742
      15    H8      20.274606   19.746394   22.562871 H          1 MOL1         0.0742
      16    C6      20.623834   18.702676   20.699354 C.3        1 MOL1        -0.1856
      17    H9      20.115255   17.966063   20.062091 H          1 MOL1         0.0742
      18    H10     21.575726   18.251700   21.012303 H          1 MOL1         0.0742
      19    C7      20.905820   19.978722   19.881058 C.3        1 MOL1        -0.2871
      20    H11     19.970782   20.433643   19.528752 H          1 MOL1         0.0754
      21    H12     21.522484   19.747191   19.002910 H          1 MOL1         0.0754
      22    H13     21.441841   20.722069   20.485722 H          1 MOL1         0.0754
@<TRIPOS>BOND
    1     1     2    1
    2     1     3    2
    3     1     4    1
    4     4     5    1
    5     4     6    1
    6     4     7    1
    7     7     8    1
    8     7     9    1
    9     7    10    1
   10    10    11    1
   11    10    12    1
   12    10    13    1
   13    13    14    1
   14    13    15    1
   15    13    16    1
   16    16    17    1
   17    16    18    1
   18    16    19    1
   19    19    20    1
   20    19    21    1
   21    19    22    1
@<TRIPOS>SUBSTRUCTURE
       1 MOL1            1 RESIDUE      1      MOL     
@<SCITEGIC>MOL_PROPERTY
VConf Rank
SciTegic.value.IntegerValue
194

@<SCITEGIC>MOL_PROPERTY
Conf_Id
SciTegic.value.IntegerValue
8

@<SCITEGIC>MOL_PROPERTY
Delta U+W
SciTegic.value.DoubleValue
1.886

@<SCITEGIC>MOL_PROPERTY
U+W
SciTegic.value.DoubleValue
-51.274

@<SCITEGIC>MOL_PROPERTY
Grad RMS
SciTegic.value.DoubleValue
0.000000

@<SCITEGIC>MOL_PROPERTY
U
SciTegic.value.DoubleValue
11.237

@<SCITEGIC>MOL_PROPERTY
W
SciTegic.value.DoubleValue
-62.510

@<SCITEGIC>MOL_PROPERTY
W(PB)
SciTegic.value.DoubleValue
-64.777

@<SCITEGIC>MOL_PROPERTY
W(SA)
SciTegic.value.DoubleValue
2.267

@<SCITEGIC>MOL_PROPERTY
Valence
SciTegic.value.DoubleValue
9.029

@<SCITEGIC>MOL_PROPERTY
Coulomb
SciTegic.value.DoubleValue
1.667

@<SCITEGIC>MOL_PROPERTY
VdW
SciTegic.value.DoubleValue
0.540

@<SCITEGIC>MOL_PROPERTY
VdW6
SciTegic.value.DoubleValue
-8.825

@<SCITEGIC>MOL_PROPERTY
VdW12
SciTegic.value.DoubleValue
9.365

@<SCITEGIC>MOL_PROPERTY
Bond
SciTegic.value.DoubleValue
0.186

@<SCITEGIC>MOL_PROPERTY
Angle
SciTegic.value.DoubleValue
3.195

@<SCITEGIC>MOL_PROPERTY
Pdih
SciTegic.value.DoubleValue
5.642

@<SCITEGIC>MOL_PROPERTY
Idih
SciTegic.value.DoubleValue
0.007

@<SCITEGIC>MOL_PROPERTY
Tether
SciTegic.value.DoubleValue
0.000

@<TRIPOS>MOLECULE
guest-s21_confgen4.mol2 : confsearch ligand conformer 195
          22          21           1
SMALL
USER_CHARGES
 
@<TRIPOS>ATOM
       1    C1      22.083447   20.135237   20.916288 C.2        1 MOL1         0.6145
       2    O1      21.658550   19.644385   19.889015 O.co2      1 MOL1        -0.6735
       3    O2      23.245855   20.064506   21.264299 O.co2      1 MOL1        -0.6735
       4    C2      21.112790   20.908682   21.804416 C.3        1 MOL1        -0.1985
       5    H1      20.202417   21.117624   21.231466 H          1 MOL1         0.0740
       6    H2      21.572289   21.880506   22.019223 H          1 MOL1         0.0740
       7    C3      20.770077   20.196974   23.142013 C.3        1 MOL1        -0.1882
       8    H3      21.695422   20.076691   23.722182 H          1 MOL1         0.0742
       9    H4      20.115811   20.846726   23.738746 H          1 MOL1         0.0742
      10    C4      20.101039   18.809422   22.981329 C.3        1 MOL1        -0.1880
      11    H5      19.995057   18.367297   23.979972 H          1 MOL1         0.0742
      12    H6      20.764354   18.141022   22.415487 H          1 MOL1         0.0742
      13    C5      18.715049   18.869391   22.293667 C.3        1 MOL1        -0.1880
      14    H7      18.054888   19.552188   22.845453 H          1 MOL1         0.0742
      15    H8      18.828660   19.288736   21.285612 H          1 MOL1         0.0742
      16    C6      18.035312   17.486588   22.160200 C.3        1 MOL1        -0.1856
      17    H9      18.700364   16.797100   21.621972 H          1 MOL1         0.0742
      18    H10     17.135223   17.596362   21.539745 H          1 MOL1         0.0742
      19    C7      17.629170   16.867812   23.515551 C.3        1 MOL1        -0.2871
      20    H11     18.507679   16.625277   24.126082 H          1 MOL1         0.0754
      21    H12     17.067483   15.937771   23.359258 H          1 MOL1         0.0754
      22    H13     16.991564   17.555533   24.086161 H          1 MOL1         0.0754
@<TRIPOS>BOND
    1     1     2    1
    2     1     3    2
    3     1     4    1
    4     4     5    1
    5     4     6    1
    6     4     7    1
    7     7     8    1
    8     7     9    1
    9     7    10    1
   10    10    11    1
   11    10    12    1
   12    10    13    1
   13    13    14    1
   14    13    15    1
   15    13    16    1
   16    16    17    1
   17    16    18    1
   18    16    19    1
   19    19    20    1
   20    19    21    1
   21    19    22    1
@<TRIPOS>SUBSTRUCTURE
       1 MOL1            1 RESIDUE      1      MOL     
@<SCITEGIC>MOL_PROPERTY
VConf Rank
SciTegic.value.IntegerValue
195

@<SCITEGIC>MOL_PROPERTY
Conf_Id
SciTegic.value.IntegerValue
93

@<SCITEGIC>MOL_PROPERTY
Delta U+W
SciTegic.value.DoubleValue
1.836

@<SCITEGIC>MOL_PROPERTY
U+W
SciTegic.value.DoubleValue
-51.323

@<SCITEGIC>MOL_PROPERTY
Grad RMS
SciTegic.value.DoubleValue
0.000000

@<SCITEGIC>MOL_PROPERTY
U
SciTegic.value.DoubleValue
10.427

@<SCITEGIC>MOL_PROPERTY
W
SciTegic.value.DoubleValue
-61.751

@<SCITEGIC>MOL_PROPERTY
W(PB)
SciTegic.value.DoubleValue
-63.980

@<SCITEGIC>MOL_PROPERTY
W(SA)
SciTegic.value.DoubleValue
2.230

@<SCITEGIC>MOL_PROPERTY
Valence
SciTegic.value.DoubleValue
8.446

@<SCITEGIC>MOL_PROPERTY
Coulomb
SciTegic.value.DoubleValue
1.306

@<SCITEGIC>MOL_PROPERTY
VdW
SciTegic.value.DoubleValue
0.676

@<SCITEGIC>MOL_PROPERTY
VdW6
SciTegic.value.DoubleValue
-8.928

@<SCITEGIC>MOL_PROPERTY
VdW12
SciTegic.value.DoubleValue
9.604

@<SCITEGIC>MOL_PROPERTY
Bond
SciTegic.value.DoubleValue
0.209

@<SCITEGIC>MOL_PROPERTY
Angle
SciTegic.value.DoubleValue
3.066

@<SCITEGIC>MOL_PROPERTY
Pdih
SciTegic.value.DoubleValue
5.170

@<SCITEGIC>MOL_PROPERTY
Idih
SciTegic.value.DoubleValue
0.001

@<SCITEGIC>MOL_PROPERTY
Tether
SciTegic.value.DoubleValue
0.000

@<TRIPOS>MOLECULE
guest-s21_confgen4.mol2 : confsearch ligand conformer 196
          22          21           1
SMALL
USER_CHARGES
 
@<TRIPOS>ATOM
       1    C1      20.257639   18.780448   25.470229 C.2        1 MOL1         0.6145
       2    O1      19.614579   18.079786   26.227098 O.co2      1 MOL1        -0.6735
       3    O2      20.342172   19.987692   25.580605 O.co2      1 MOL1        -0.6735
       4    C2      21.024029   18.101680   24.338379 C.3        1 MOL1        -0.1985
       5    H1      21.600082   17.281196   24.781880 H          1 MOL1         0.0740
       6    H2      21.756262   18.810269   23.935332 H          1 MOL1         0.0740
       7    C3      20.120621   17.540184   23.206247 C.3        1 MOL1        -0.1882
       8    H3      20.747705   17.022254   22.468110 H          1 MOL1         0.0742
       9    H4      19.455969   16.776996   23.634160 H          1 MOL1         0.0742
      10    C4      19.255925   18.603027   22.484168 C.3        1 MOL1        -0.1880
      11    H5      18.599107   19.102160   23.209690 H          1 MOL1         0.0742
      12    H6      18.597341   18.080905   21.778724 H          1 MOL1         0.0742
      13    C5      20.089934   19.663106   21.723836 C.3        1 MOL1        -0.1880
      14    H7      20.728929   20.200560   22.436411 H          1 MOL1         0.0742
      15    H8      20.762395   19.166719   21.011172 H          1 MOL1         0.0742
      16    C6      19.224816   20.706688   20.979187 C.3        1 MOL1        -0.1856
      17    H9      19.883270   21.496448   20.592024 H          1 MOL1         0.0742
      18    H10     18.540178   21.193699   21.687332 H          1 MOL1         0.0742
      19    C7      18.421212   20.111792   19.802272 C.3        1 MOL1        -0.2871
      20    H11     17.661140   19.402499   20.152336 H          1 MOL1         0.0754
      21    H12     19.082788   19.589475   19.098993 H          1 MOL1         0.0754
      22    H13     17.903089   20.907226   19.251154 H          1 MOL1         0.0754
@<TRIPOS>BOND
    1     1     2    1
    2     1     3    2
    3     1     4    1
    4     4     5    1
    5     4     6    1
    6     4     7    1
    7     7     8    1
    8     7     9    1
    9     7    10    1
   10    10    11    1
   11    10    12    1
   12    10    13    1
   13    13    14    1
   14    13    15    1
   15    13    16    1
   16    16    17    1
   17    16    18    1
   18    16    19    1
   19    19    20    1
   20    19    21    1
   21    19    22    1
@<TRIPOS>SUBSTRUCTURE
       1 MOL1            1 RESIDUE      1      MOL     
@<SCITEGIC>MOL_PROPERTY
VConf Rank
SciTegic.value.IntegerValue
196

@<SCITEGIC>MOL_PROPERTY
Conf_Id
SciTegic.value.IntegerValue
70

@<SCITEGIC>MOL_PROPERTY
Delta U+W
SciTegic.value.DoubleValue
1.803

@<SCITEGIC>MOL_PROPERTY
U+W
SciTegic.value.DoubleValue
-51.356

@<SCITEGIC>MOL_PROPERTY
Grad RMS
SciTegic.value.DoubleValue
0.000000

@<SCITEGIC>MOL_PROPERTY
U
SciTegic.value.DoubleValue
10.428

@<SCITEGIC>MOL_PROPERTY
W
SciTegic.value.DoubleValue
-61.784

@<SCITEGIC>MOL_PROPERTY
W(PB)
SciTegic.value.DoubleValue
-64.014

@<SCITEGIC>MOL_PROPERTY
W(SA)
SciTegic.value.DoubleValue
2.230

@<SCITEGIC>MOL_PROPERTY
Valence
SciTegic.value.DoubleValue
8.445

@<SCITEGIC>MOL_PROPERTY
Coulomb
SciTegic.value.DoubleValue
1.306

@<SCITEGIC>MOL_PROPERTY
VdW
SciTegic.value.DoubleValue
0.676

@<SCITEGIC>MOL_PROPERTY
VdW6
SciTegic.value.DoubleValue
-8.929

@<SCITEGIC>MOL_PROPERTY
VdW12
SciTegic.value.DoubleValue
9.605

@<SCITEGIC>MOL_PROPERTY
Bond
SciTegic.value.DoubleValue
0.209

@<SCITEGIC>MOL_PROPERTY
Angle
SciTegic.value.DoubleValue
3.066

@<SCITEGIC>MOL_PROPERTY
Pdih
SciTegic.value.DoubleValue
5.170

@<SCITEGIC>MOL_PROPERTY
Idih
SciTegic.value.DoubleValue
0.001

@<SCITEGIC>MOL_PROPERTY
Tether
SciTegic.value.DoubleValue
0.000

@<TRIPOS>MOLECULE
guest-s21_confgen4.mol2 : confsearch ligand conformer 197
          22          21           1
SMALL
USER_CHARGES
 
@<TRIPOS>ATOM
       1    C1      22.481354   18.690892   20.601634 C.2        1 MOL1         0.6145
       2    O1      22.654879   17.488914   20.556364 O.co2      1 MOL1        -0.6735
       3    O2      23.305673   19.473501   21.031634 O.co2      1 MOL1        -0.6735
       4    C2      21.163854   19.247687   20.069402 C.3        1 MOL1        -0.1985
       5    H1      20.957877   18.748444   19.115270 H          1 MOL1         0.0740
       6    H2      21.298310   20.313266   19.847361 H          1 MOL1         0.0740
       7    C3      19.962176   19.047084   21.028938 C.3        1 MOL1        -0.1882
       8    H3      19.040973   19.354957   20.516235 H          1 MOL1         0.0742
       9    H4      19.859784   17.976730   21.251399 H          1 MOL1         0.0742
      10    C4      20.111038   19.854445   22.340644 C.3        1 MOL1        -0.1880
      11    H5      20.299658   20.907722   22.091908 H          1 MOL1         0.0742
      12    H6      20.992653   19.505329   22.895781 H          1 MOL1         0.0742
      13    C5      18.864557   19.780968   23.254108 C.3        1 MOL1        -0.1880
      14    H7      19.007339   20.474690   24.093901 H          1 MOL1         0.0742
      15    H8      17.982951   20.136947   22.703731 H          1 MOL1         0.0742
      16    C6      18.593703   18.365939   23.813125 C.3        1 MOL1        -0.1856
      17    H9      19.493667   17.988589   24.318041 H          1 MOL1         0.0742
      18    H10     18.371466   17.671117   22.992643 H          1 MOL1         0.0742
      19    C7      17.412295   18.365998   24.804088 C.3        1 MOL1        -0.2871
      20    H11     17.616773   19.022702   25.659822 H          1 MOL1         0.0754
      21    H12     17.230733   17.354264   25.189432 H          1 MOL1         0.0754
      22    H13     16.491739   18.713612   24.317144 H          1 MOL1         0.0754
@<TRIPOS>BOND
    1     1     2    1
    2     1     3    2
    3     1     4    1
    4     4     5    1
    5     4     6    1
    6     4     7    1
    7     7     8    1
    8     7     9    1
    9     7    10    1
   10    10    11    1
   11    10    12    1
   12    10    13    1
   13    13    14    1
   14    13    15    1
   15    13    16    1
   16    16    17    1
   17    16    18    1
   18    16    19    1
   19    19    20    1
   20    19    21    1
   21    19    22    1
@<TRIPOS>SUBSTRUCTURE
       1 MOL1            1 RESIDUE      1      MOL     
@<SCITEGIC>MOL_PROPERTY
VConf Rank
SciTegic.value.IntegerValue
197

@<SCITEGIC>MOL_PROPERTY
Conf_Id
SciTegic.value.IntegerValue
85

@<SCITEGIC>MOL_PROPERTY
Delta U+W
SciTegic.value.DoubleValue
0.707

@<SCITEGIC>MOL_PROPERTY
U+W
SciTegic.value.DoubleValue
-52.452

@<SCITEGIC>MOL_PROPERTY
Grad RMS
SciTegic.value.DoubleValue
0.000000

@<SCITEGIC>MOL_PROPERTY
U
SciTegic.value.DoubleValue
8.925

@<SCITEGIC>MOL_PROPERTY
W
SciTegic.value.DoubleValue
-61.378

@<SCITEGIC>MOL_PROPERTY
W(PB)
SciTegic.value.DoubleValue
-63.661

@<SCITEGIC>MOL_PROPERTY
W(SA)
SciTegic.value.DoubleValue
2.283

@<SCITEGIC>MOL_PROPERTY
Valence
SciTegic.value.DoubleValue
7.881

@<SCITEGIC>MOL_PROPERTY
Coulomb
SciTegic.value.DoubleValue
0.349

@<SCITEGIC>MOL_PROPERTY
VdW
SciTegic.value.DoubleValue
0.695

@<SCITEGIC>MOL_PROPERTY
VdW6
SciTegic.value.DoubleValue
-8.049

@<SCITEGIC>MOL_PROPERTY
VdW12
SciTegic.value.DoubleValue
8.743

@<SCITEGIC>MOL_PROPERTY
Bond
SciTegic.value.DoubleValue
0.156

@<SCITEGIC>MOL_PROPERTY
Angle
SciTegic.value.DoubleValue
2.660

@<SCITEGIC>MOL_PROPERTY
Pdih
SciTegic.value.DoubleValue
5.064

@<SCITEGIC>MOL_PROPERTY
Idih
SciTegic.value.DoubleValue
0.001

@<SCITEGIC>MOL_PROPERTY
Tether
SciTegic.value.DoubleValue
0.000

@<TRIPOS>MOLECULE
guest-s21_confgen4.mol2 : confsearch ligand conformer 198
          22          21           1
SMALL
USER_CHARGES
 
@<TRIPOS>ATOM
       1    C1      16.720169   17.807307   22.706581 C.2        1 MOL1         0.6145
       2    O1      15.908226   18.700969   22.568537 O.co2      1 MOL1        -0.6735
       3    O2      16.628021   16.725362   22.160799 O.co2      1 MOL1        -0.6735
       4    C2      17.908795   18.046469   23.633601 C.3        1 MOL1        -0.1985
       5    H1      18.006097   17.162397   24.274648 H          1 MOL1         0.0740
       6    H2      17.675754   18.891975   24.292135 H          1 MOL1         0.0740
       7    C3      19.248341   18.297826   22.893246 C.3        1 MOL1        -0.1882
       8    H3      20.057451   18.300082   23.634354 H          1 MOL1         0.0742
       9    H4      19.445580   17.466155   22.202814 H          1 MOL1         0.0742
      10    C4      19.259085   19.637251   22.120648 C.3        1 MOL1        -0.1880
      11    H5      19.146940   20.468470   22.830012 H          1 MOL1         0.0742
      12    H6      18.383272   19.679020   21.458795 H          1 MOL1         0.0742
      13    C5      20.525662   19.863731   21.257506 C.3        1 MOL1        -0.1880
      14    H7      20.597037   19.087882   20.482979 H          1 MOL1         0.0742
      15    H8      20.391982   20.811513   20.718335 H          1 MOL1         0.0742
      16    C6      21.849840   19.947384   22.057167 C.3        1 MOL1        -0.1856
      17    H9      21.657830   20.312167   23.075634 H          1 MOL1         0.0742
      18    H10     22.499850   20.695447   21.582628 H          1 MOL1         0.0742
      19    C7      22.618898   18.608190   22.103415 C.3        1 MOL1        -0.2871
      20    H11     22.031310   17.815914   22.580848 H          1 MOL1         0.0754
      21    H12     23.552280   18.720951   22.669897 H          1 MOL1         0.0754
      22    H13     22.879299   18.272883   21.091067 H          1 MOL1         0.0754
@<TRIPOS>BOND
    1     1     2    1
    2     1     3    2
    3     1     4    1
    4     4     5    1
    5     4     6    1
    6     4     7    1
    7     7     8    1
    8     7     9    1
    9     7    10    1
   10    10    11    1
   11    10    12    1
   12    10    13    1
   13    13    14    1
   14    13    15    1
   15    13    16    1
   16    16    17    1
   17    16    18    1
   18    16    19    1
   19    19    20    1
   20    19    21    1
   21    19    22    1
@<TRIPOS>SUBSTRUCTURE
       1 MOL1            1 RESIDUE      1      MOL     
@<SCITEGIC>MOL_PROPERTY
VConf Rank
SciTegic.value.IntegerValue
198

@<SCITEGIC>MOL_PROPERTY
Conf_Id
SciTegic.value.IntegerValue
82

@<SCITEGIC>MOL_PROPERTY
Delta U+W
SciTegic.value.DoubleValue
3.438

@<SCITEGIC>MOL_PROPERTY
U+W
SciTegic.value.DoubleValue
-49.721

@<SCITEGIC>MOL_PROPERTY
Grad RMS
SciTegic.value.DoubleValue
0.000000

@<SCITEGIC>MOL_PROPERTY
U
SciTegic.value.DoubleValue
11.773

@<SCITEGIC>MOL_PROPERTY
W
SciTegic.value.DoubleValue
-61.495

@<SCITEGIC>MOL_PROPERTY
W(PB)
SciTegic.value.DoubleValue
-63.749

@<SCITEGIC>MOL_PROPERTY
W(SA)
SciTegic.value.DoubleValue
2.254

@<SCITEGIC>MOL_PROPERTY
Valence
SciTegic.value.DoubleValue
10.419

@<SCITEGIC>MOL_PROPERTY
Coulomb
SciTegic.value.DoubleValue
0.565

@<SCITEGIC>MOL_PROPERTY
VdW
SciTegic.value.DoubleValue
0.789

@<SCITEGIC>MOL_PROPERTY
VdW6
SciTegic.value.DoubleValue
-8.847

@<SCITEGIC>MOL_PROPERTY
VdW12
SciTegic.value.DoubleValue
9.636

@<SCITEGIC>MOL_PROPERTY
Bond
SciTegic.value.DoubleValue
0.200

@<SCITEGIC>MOL_PROPERTY
Angle
SciTegic.value.DoubleValue
3.187

@<SCITEGIC>MOL_PROPERTY
Pdih
SciTegic.value.DoubleValue
7.032

@<SCITEGIC>MOL_PROPERTY
Idih
SciTegic.value.DoubleValue
0.001

@<SCITEGIC>MOL_PROPERTY
Tether
SciTegic.value.DoubleValue
0.000

@<TRIPOS>MOLECULE
guest-s21_confgen4.mol2 : confsearch ligand conformer 199
          22          21           1
SMALL
USER_CHARGES
 
@<TRIPOS>ATOM
       1    C1      22.516536   19.910999   20.536266 C.2        1 MOL1         0.6145
       2    O1      23.344165   20.402584   21.278120 O.co2      1 MOL1        -0.6735
       3    O2      22.790296   19.124813   19.650881 O.co2      1 MOL1        -0.6735
       4    C2      21.057476   20.322516   20.712893 C.3        1 MOL1        -0.1985
       5    H1      20.511254   20.082579   19.792606 H          1 MOL1         0.0740
       6    H2      21.036393   21.413508   20.819120 H          1 MOL1         0.0740
       7    C3      20.359544   19.670784   21.935115 C.3        1 MOL1        -0.1882
       8    H3      20.942589   19.879532   22.842728 H          1 MOL1         0.0742
       9    H4      19.378729   20.144850   22.066149 H          1 MOL1         0.0742
      10    C4      20.171724   18.144890   21.769430 C.3        1 MOL1        -0.1880
      11    H5      21.140267   17.686325   21.527594 H          1 MOL1         0.0742
      12    H6      19.516855   17.949194   20.909459 H          1 MOL1         0.0742
      13    C5      19.602457   17.434089   23.022914 C.3        1 MOL1        -0.1880
      14    H7      19.568644   16.357927   22.804746 H          1 MOL1         0.0742
      15    H8      20.297098   17.545314   23.866733 H          1 MOL1         0.0742
      16    C6      18.179523   17.886551   23.435751 C.3        1 MOL1        -0.1856
      17    H9      17.627479   17.012568   23.808176 H          1 MOL1         0.0742
      18    H10     17.624521   18.246927   22.558646 H          1 MOL1         0.0742
      19    C7      18.180275   18.959264   24.547647 C.3        1 MOL1        -0.2871
      20    H11     18.669249   18.580500   25.454581 H          1 MOL1         0.0754
      21    H12     17.152256   19.238339   24.812434 H          1 MOL1         0.0754
      22    H13     18.704638   19.869831   24.236497 H          1 MOL1         0.0754
@<TRIPOS>BOND
    1     1     2    1
    2     1     3    2
    3     1     4    1
    4     4     5    1
    5     4     6    1
    6     4     7    1
    7     7     8    1
    8     7     9    1
    9     7    10    1
   10    10    11    1
   11    10    12    1
   12    10    13    1
   13    13    14    1
   14    13    15    1
   15    13    16    1
   16    16    17    1
   17    16    18    1
   18    16    19    1
   19    19    20    1
   20    19    21    1
   21    19    22    1
@<TRIPOS>SUBSTRUCTURE
       1 MOL1            1 RESIDUE      1      MOL     
@<SCITEGIC>MOL_PROPERTY
VConf Rank
SciTegic.value.IntegerValue
199

@<SCITEGIC>MOL_PROPERTY
Conf_Id
SciTegic.value.IntegerValue
94

@<SCITEGIC>MOL_PROPERTY
Delta U+W
SciTegic.value.DoubleValue
3.471

@<SCITEGIC>MOL_PROPERTY
U+W
SciTegic.value.DoubleValue
-49.688

@<SCITEGIC>MOL_PROPERTY
Grad RMS
SciTegic.value.DoubleValue
0.000000

@<SCITEGIC>MOL_PROPERTY
U
SciTegic.value.DoubleValue
11.773

@<SCITEGIC>MOL_PROPERTY
W
SciTegic.value.DoubleValue
-61.461

@<SCITEGIC>MOL_PROPERTY
W(PB)
SciTegic.value.DoubleValue
-63.710

@<SCITEGIC>MOL_PROPERTY
W(SA)
SciTegic.value.DoubleValue
2.248

@<SCITEGIC>MOL_PROPERTY
Valence
SciTegic.value.DoubleValue
10.419

@<SCITEGIC>MOL_PROPERTY
Coulomb
SciTegic.value.DoubleValue
0.566

@<SCITEGIC>MOL_PROPERTY
VdW
SciTegic.value.DoubleValue
0.789

@<SCITEGIC>MOL_PROPERTY
VdW6
SciTegic.value.DoubleValue
-8.847

@<SCITEGIC>MOL_PROPERTY
VdW12
SciTegic.value.DoubleValue
9.636

@<SCITEGIC>MOL_PROPERTY
Bond
SciTegic.value.DoubleValue
0.200

@<SCITEGIC>MOL_PROPERTY
Angle
SciTegic.value.DoubleValue
3.187

@<SCITEGIC>MOL_PROPERTY
Pdih
SciTegic.value.DoubleValue
7.032

@<SCITEGIC>MOL_PROPERTY
Idih
SciTegic.value.DoubleValue
0.001

@<SCITEGIC>MOL_PROPERTY
Tether
SciTegic.value.DoubleValue
0.000

@<TRIPOS>MOLECULE
guest-s21_confgen4.mol2 : confsearch ligand conformer 200
          22          21           1
SMALL
USER_CHARGES
 
@<TRIPOS>ATOM
       1    C1      22.877856   20.329659   22.716182 C.2        1 MOL1         0.6145
       2    O1      23.925676   19.830263   23.075871 O.co2      1 MOL1        -0.6735
       3    O2      22.605108   21.503914   22.868847 O.co2      1 MOL1        -0.6735
       4    C2      21.841069   19.429035   22.054455 C.3        1 MOL1        -0.1985
       5    H1      22.372981   18.650662   21.494602 H          1 MOL1         0.0740
       6    H2      21.289037   20.034438   21.326594 H          1 MOL1         0.0740
       7    C3      20.867973   18.783704   23.074792 C.3        1 MOL1        -0.1882
       8    H3      21.455880   18.253366   23.836503 H          1 MOL1         0.0742
       9    H4      20.319578   19.571263   23.608497 H          1 MOL1         0.0742
      10    C4      19.873711   17.783474   22.433388 C.3        1 MOL1        -0.1880
      11    H5      19.260334   17.334981   23.225913 H          1 MOL1         0.0742
      12    H6      20.441555   16.953387   21.991738 H          1 MOL1         0.0742
      13    C5      18.944934   18.382153   21.344295 C.3        1 MOL1        -0.1880
      14    H7      19.547894   18.683309   20.477694 H          1 MOL1         0.0742
      15    H8      18.277383   17.589703   20.979680 H          1 MOL1         0.0742
      16    C6      18.085562   19.586817   21.800576 C.3        1 MOL1        -0.1856
      17    H9      17.493890   19.939187   20.944616 H          1 MOL1         0.0742
      18    H10     18.733020   20.425870   22.088312 H          1 MOL1         0.0742
      19    C7      17.126147   19.246635   22.961439 C.3        1 MOL1        -0.2871
      20    H11     16.479719   18.398548   22.700990 H          1 MOL1         0.0754
      21    H12     16.482321   20.105150   23.192055 H          1 MOL1         0.0754
      22    H13     17.679534   18.990848   23.873740 H          1 MOL1         0.0754
@<TRIPOS>BOND
    1     1     2    1
    2     1     3    2
    3     1     4    1
    4     4     5    1
    5     4     6    1
    6     4     7    1
    7     7     8    1
    8     7     9    1
    9     7    10    1
   10    10    11    1
   11    10    12    1
   12    10    13    1
   13    13    14    1
   14    13    15    1
   15    13    16    1
   16    16    17    1
   17    16    18    1
   18    16    19    1
   19    19    20    1
   20    19    21    1
   21    19    22    1
@<TRIPOS>SUBSTRUCTURE
       1 MOL1            1 RESIDUE      1      MOL     
@<SCITEGIC>MOL_PROPERTY
VConf Rank
SciTegic.value.IntegerValue
200

@<SCITEGIC>MOL_PROPERTY
Conf_Id
SciTegic.value.IntegerValue
56

@<SCITEGIC>MOL_PROPERTY
Delta U+W
SciTegic.value.DoubleValue
0.853

@<SCITEGIC>MOL_PROPERTY
U+W
SciTegic.value.DoubleValue
-52.307

@<SCITEGIC>MOL_PROPERTY
Grad RMS
SciTegic.value.DoubleValue
0.000000

@<SCITEGIC>MOL_PROPERTY
U
SciTegic.value.DoubleValue
8.874

@<SCITEGIC>MOL_PROPERTY
W
SciTegic.value.DoubleValue
-61.181

@<SCITEGIC>MOL_PROPERTY
W(PB)
SciTegic.value.DoubleValue
-63.413

@<SCITEGIC>MOL_PROPERTY
W(SA)
SciTegic.value.DoubleValue
2.232

@<SCITEGIC>MOL_PROPERTY
Valence
SciTegic.value.DoubleValue
8.479

@<SCITEGIC>MOL_PROPERTY
Coulomb
SciTegic.value.DoubleValue
-0.357

@<SCITEGIC>MOL_PROPERTY
VdW
SciTegic.value.DoubleValue
0.753

@<SCITEGIC>MOL_PROPERTY
VdW6
SciTegic.value.DoubleValue
-9.081

@<SCITEGIC>MOL_PROPERTY
VdW12
SciTegic.value.DoubleValue
9.833

@<SCITEGIC>MOL_PROPERTY
Bond
SciTegic.value.DoubleValue
0.221

@<SCITEGIC>MOL_PROPERTY
Angle
SciTegic.value.DoubleValue
3.208

@<SCITEGIC>MOL_PROPERTY
Pdih
SciTegic.value.DoubleValue
5.050

@<SCITEGIC>MOL_PROPERTY
Idih
SciTegic.value.DoubleValue
0.000

@<SCITEGIC>MOL_PROPERTY
Tether
SciTegic.value.DoubleValue
0.000

@<TRIPOS>MOLECULE
guest-s21_confgen4.mol2 : confsearch ligand conformer 201
          22          21           1
SMALL
USER_CHARGES
 
@<TRIPOS>ATOM
       1    C1      16.624765   21.425506   21.929988 C.2        1 MOL1         0.6145
       2    O1      15.889320   20.631761   22.484507 O.co2      1 MOL1        -0.6735
       3    O2      16.254051   22.516761   21.545727 O.co2      1 MOL1        -0.6735
       4    C2      18.091032   21.062069   21.690194 C.3        1 MOL1        -0.1985
       5    H1      18.702313   21.833038   22.173840 H          1 MOL1         0.0740
       6    H2      18.274306   21.136831   20.611868 H          1 MOL1         0.0740
       7    C3      18.517619   19.659229   22.198594 C.3        1 MOL1        -0.1882
       8    H3      18.325575   19.588884   23.278251 H          1 MOL1         0.0742
       9    H4      17.897317   18.892029   21.714734 H          1 MOL1         0.0742
      10    C4      20.009057   19.375286   21.916632 C.3        1 MOL1        -0.1880
      11    H5      20.627146   20.143516   22.401316 H          1 MOL1         0.0742
      12    H6      20.198629   19.446318   20.836749 H          1 MOL1         0.0742
      13    C5      20.431251   17.979360   22.423041 C.3        1 MOL1        -0.1880
      14    H7      20.241806   17.907823   23.502911 H          1 MOL1         0.0742
      15    H8      19.813432   17.210769   21.938588 H          1 MOL1         0.0742
      16    C6      21.921570   17.694971   22.141657 C.3        1 MOL1        -0.1856
      17    H9      22.542893   18.460721   22.626486 H          1 MOL1         0.0742
      18    H10     22.114515   17.763711   21.062063 H          1 MOL1         0.0742
      19    C7      22.339157   16.300062   22.648794 C.3        1 MOL1        -0.2871
      20    H11     22.186116   16.214111   23.732583 H          1 MOL1         0.0754
      21    H12     23.400952   16.114636   22.440705 H          1 MOL1         0.0754
      22    H13     21.754585   15.511884   22.156394 H          1 MOL1         0.0754
@<TRIPOS>BOND
    1     1     2    1
    2     1     3    2
    3     1     4    1
    4     4     5    1
    5     4     6    1
    6     4     7    1
    7     7     8    1
    8     7     9    1
    9     7    10    1
   10    10    11    1
   11    10    12    1
   12    10    13    1
   13    13    14    1
   14    13    15    1
   15    13    16    1
   16    16    17    1
   17    16    18    1
   18    16    19    1
   19    19    20    1
   20    19    21    1
   21    19    22    1
@<TRIPOS>SUBSTRUCTURE
       1 MOL1            1 RESIDUE      1      MOL     
@<SCITEGIC>MOL_PROPERTY
VConf Rank
SciTegic.value.IntegerValue
201

@<SCITEGIC>MOL_PROPERTY
Conf_Id
SciTegic.value.IntegerValue
0

@<SCITEGIC>MOL_PROPERTY
Delta U+W
SciTegic.value.DoubleValue
0.000

@<SCITEGIC>MOL_PROPERTY
U+W
SciTegic.value.DoubleValue
-53.159

@<SCITEGIC>MOL_PROPERTY
Grad RMS
SciTegic.value.DoubleValue
0.000000

@<SCITEGIC>MOL_PROPERTY
U
SciTegic.value.DoubleValue
6.763

@<SCITEGIC>MOL_PROPERTY
W
SciTegic.value.DoubleValue
-59.922

@<SCITEGIC>MOL_PROPERTY
W(PB)
SciTegic.value.DoubleValue
-62.256

@<SCITEGIC>MOL_PROPERTY
W(SA)
SciTegic.value.DoubleValue
2.334

@<SCITEGIC>MOL_PROPERTY
Valence
SciTegic.value.DoubleValue
7.600

@<SCITEGIC>MOL_PROPERTY
Coulomb
SciTegic.value.DoubleValue
-2.139

@<SCITEGIC>MOL_PROPERTY
VdW
SciTegic.value.DoubleValue
1.302

@<SCITEGIC>MOL_PROPERTY
VdW6
SciTegic.value.DoubleValue
-6.786

@<SCITEGIC>MOL_PROPERTY
VdW12
SciTegic.value.DoubleValue
8.088

@<SCITEGIC>MOL_PROPERTY
Bond
SciTegic.value.DoubleValue
0.134

@<SCITEGIC>MOL_PROPERTY
Angle
SciTegic.value.DoubleValue
2.720

@<SCITEGIC>MOL_PROPERTY
Pdih
SciTegic.value.DoubleValue
4.746

@<SCITEGIC>MOL_PROPERTY
Idih
SciTegic.value.DoubleValue
0.000

@<SCITEGIC>MOL_PROPERTY
Tether
SciTegic.value.DoubleValue
0.000

@<TRIPOS>MOLECULE
guest-s21_confgen4.mol2 : confsearch ligand conformer 202
          22          21           1
SMALL
USER_CHARGES
 
@<TRIPOS>ATOM
       1    C1      19.810695   15.044704   21.328786 C.2        1 MOL1         0.6145
       2    O1      19.602636   14.328274   22.287885 O.co2      1 MOL1        -0.6735
       3    O2      20.529569   14.733834   20.399803 O.co2      1 MOL1        -0.6735
       4    C2      19.151004   16.418821   21.300080 C.3        1 MOL1        -0.1985
       5    H1      18.183159   16.342863   21.810147 H          1 MOL1         0.0740
       6    H2      18.946802   16.676953   20.253977 H          1 MOL1         0.0740
       7    C3      20.019275   17.517050   21.961933 C.3        1 MOL1        -0.1882
       8    H3      20.225600   17.237349   23.004416 H          1 MOL1         0.0742
       9    H4      20.989218   17.571430   21.448293 H          1 MOL1         0.0742
      10    C4      19.329830   18.897916   21.920068 C.3        1 MOL1        -0.1880
      11    H5      18.360071   18.839768   22.433254 H          1 MOL1         0.0742
      12    H6      19.123845   19.173919   20.876725 H          1 MOL1         0.0742
      13    C5      20.197663   19.990624   22.580484 C.3        1 MOL1        -0.1880
      14    H7      20.403881   19.714982   23.623854 H          1 MOL1         0.0742
      15    H8      21.167531   20.049081   22.067585 H          1 MOL1         0.0742
      16    C6      19.509277   21.371014   22.539044 C.3        1 MOL1        -0.1856
      17    H9      18.539506   21.317038   23.052957 H          1 MOL1         0.0742
      18    H10     19.303139   21.651137   21.496684 H          1 MOL1         0.0742
      19    C7      20.379055   22.459425   23.199490 C.3        1 MOL1        -0.2871
      20    H11     21.344046   22.556901   22.685001 H          1 MOL1         0.0754
      21    H12     20.574787   22.220177   24.252988 H          1 MOL1         0.0754
      22    H13     19.874692   23.433719   23.161279 H          1 MOL1         0.0754
@<TRIPOS>BOND
    1     1     2    1
    2     1     3    2
    3     1     4    1
    4     4     5    1
    5     4     6    1
    6     4     7    1
    7     7     8    1
    8     7     9    1
    9     7    10    1
   10    10    11    1
   11    10    12    1
   12    10    13    1
   13    13    14    1
   14    13    15    1
   15    13    16    1
   16    16    17    1
   17    16    18    1
   18    16    19    1
   19    19    20    1
   20    19    21    1
   21    19    22    1
@<TRIPOS>SUBSTRUCTURE
       1 MOL1            1 RESIDUE      1      MOL     
@<SCITEGIC>MOL_PROPERTY
VConf Rank
SciTegic.value.IntegerValue
202

@<SCITEGIC>MOL_PROPERTY
Conf_Id
SciTegic.value.IntegerValue
10

@<SCITEGIC>MOL_PROPERTY
Delta U+W
SciTegic.value.DoubleValue
-1.291

@<SCITEGIC>MOL_PROPERTY
U+W
SciTegic.value.DoubleValue
-54.451

@<SCITEGIC>MOL_PROPERTY
Grad RMS
SciTegic.value.DoubleValue
0.000000

@<SCITEGIC>MOL_PROPERTY
U
SciTegic.value.DoubleValue
5.779

@<SCITEGIC>MOL_PROPERTY
W
SciTegic.value.DoubleValue
-60.230

@<SCITEGIC>MOL_PROPERTY
W(PB)
SciTegic.value.DoubleValue
-62.557

@<SCITEGIC>MOL_PROPERTY
W(SA)
SciTegic.value.DoubleValue
2.328

@<SCITEGIC>MOL_PROPERTY
Valence
SciTegic.value.DoubleValue
7.101

@<SCITEGIC>MOL_PROPERTY
Coulomb
SciTegic.value.DoubleValue
-2.079

@<SCITEGIC>MOL_PROPERTY
VdW
SciTegic.value.DoubleValue
0.757

@<SCITEGIC>MOL_PROPERTY
VdW6
SciTegic.value.DoubleValue
-6.496

@<SCITEGIC>MOL_PROPERTY
VdW12
SciTegic.value.DoubleValue
7.253

@<SCITEGIC>MOL_PROPERTY
Bond
SciTegic.value.DoubleValue
0.100

@<SCITEGIC>MOL_PROPERTY
Angle
SciTegic.value.DoubleValue
2.262

@<SCITEGIC>MOL_PROPERTY
Pdih
SciTegic.value.DoubleValue
4.738

@<SCITEGIC>MOL_PROPERTY
Idih
SciTegic.value.DoubleValue
0.001

@<SCITEGIC>MOL_PROPERTY
Tether
SciTegic.value.DoubleValue
0.000

@<TRIPOS>MOLECULE
guest-s21_confgen4.mol2 : confsearch ligand conformer 203
          22          21           1
SMALL
USER_CHARGES
 
@<TRIPOS>ATOM
       1    C1      22.992560   17.939002   20.101668 C.2        1 MOL1         0.6145
       2    O1      22.815774   18.084760   18.908373 O.co2      1 MOL1        -0.6735
       3    O2      24.085019   17.989217   20.631261 O.co2      1 MOL1        -0.6735
       4    C2      21.773937   17.700866   20.986234 C.3        1 MOL1        -0.1985
       5    H1      22.079660   17.060532   21.822386 H          1 MOL1         0.0740
       6    H2      21.033553   17.140573   20.402657 H          1 MOL1         0.0740
       7    C3      21.151179   19.014724   21.519246 C.3        1 MOL1        -0.1882
       8    H3      21.908893   19.569796   22.089577 H          1 MOL1         0.0742
       9    H4      20.861953   19.649845   20.670410 H          1 MOL1         0.0742
      10    C4      19.919754   18.746672   22.411482 C.3        1 MOL1        -0.1880
      11    H5      20.212271   18.113400   23.260161 H          1 MOL1         0.0742
      12    H6      19.172745   18.185986   21.834614 H          1 MOL1         0.0742
      13    C5      19.299621   20.061397   22.937970 C.3        1 MOL1        -0.1880
      14    H7      20.077455   20.642948   23.451493 H          1 MOL1         0.0742
      15    H8      18.959609   20.675019   22.092515 H          1 MOL1         0.0742
      16    C6      18.125777   19.837649   23.919467 C.3        1 MOL1        -0.1856
      17    H9      17.822931   20.809105   24.333947 H          1 MOL1         0.0742
      18    H10     18.463790   19.229402   24.769815 H          1 MOL1         0.0742
      19    C7      16.896921   19.173360   23.261560 C.3        1 MOL1        -0.2871
      20    H11     16.063386   19.118131   23.973662 H          1 MOL1         0.0754
      21    H12     17.121611   18.150707   22.933841 H          1 MOL1         0.0754
      22    H13     16.559022   19.748552   22.389716 H          1 MOL1         0.0754
@<TRIPOS>BOND
    1     1     2    1
    2     1     3    2
    3     1     4    1
    4     4     5    1
    5     4     6    1
    6     4     7    1
    7     7     8    1
    8     7     9    1
    9     7    10    1
   10    10    11    1
   11    10    12    1
   12    10    13    1
   13    13    14    1
   14    13    15    1
   15    13    16    1
   16    16    17    1
   17    16    18    1
   18    16    19    1
   19    19    20    1
   20    19    21    1
   21    19    22    1
@<TRIPOS>SUBSTRUCTURE
       1 MOL1            1 RESIDUE      1      MOL     
@<SCITEGIC>MOL_PROPERTY
VConf Rank
SciTegic.value.IntegerValue
203

@<SCITEGIC>MOL_PROPERTY
Conf_Id
SciTegic.value.IntegerValue
37

@<SCITEGIC>MOL_PROPERTY
Delta U+W
SciTegic.value.DoubleValue
-0.345

@<SCITEGIC>MOL_PROPERTY
U+W
SciTegic.value.DoubleValue
-53.504

@<SCITEGIC>MOL_PROPERTY
Grad RMS
SciTegic.value.DoubleValue
0.000000

@<SCITEGIC>MOL_PROPERTY
U
SciTegic.value.DoubleValue
6.751

@<SCITEGIC>MOL_PROPERTY
W
SciTegic.value.DoubleValue
-60.255

@<SCITEGIC>MOL_PROPERTY
W(PB)
SciTegic.value.DoubleValue
-62.592

@<SCITEGIC>MOL_PROPERTY
W(SA)
SciTegic.value.DoubleValue
2.336

@<SCITEGIC>MOL_PROPERTY
Valence
SciTegic.value.DoubleValue
7.602

@<SCITEGIC>MOL_PROPERTY
Coulomb
SciTegic.value.DoubleValue
-1.744

@<SCITEGIC>MOL_PROPERTY
VdW
SciTegic.value.DoubleValue
0.894

@<SCITEGIC>MOL_PROPERTY
VdW6
SciTegic.value.DoubleValue
-7.110

@<SCITEGIC>MOL_PROPERTY
VdW12
SciTegic.value.DoubleValue
8.004

@<SCITEGIC>MOL_PROPERTY
Bond
SciTegic.value.DoubleValue
0.131

@<SCITEGIC>MOL_PROPERTY
Angle
SciTegic.value.DoubleValue
2.489

@<SCITEGIC>MOL_PROPERTY
Pdih
SciTegic.value.DoubleValue
4.982

@<SCITEGIC>MOL_PROPERTY
Idih
SciTegic.value.DoubleValue
0.001

@<SCITEGIC>MOL_PROPERTY
Tether
SciTegic.value.DoubleValue
0.000

@<TRIPOS>MOLECULE
guest-s21_confgen4.mol2 : confsearch ligand conformer 204
          22          21           1
SMALL
USER_CHARGES
 
@<TRIPOS>ATOM
       1    C1      16.330891   20.175777   23.531857 C.2        1 MOL1         0.6145
       2    O1      15.884145   21.115696   22.904624 O.co2      1 MOL1        -0.6735
       3    O2      16.052688   19.948068   24.692551 O.co2      1 MOL1        -0.6735
       4    C2      17.311567   19.242935   22.830223 C.3        1 MOL1        -0.1985
       5    H1      17.039282   19.198152   21.768850 H          1 MOL1         0.0740
       6    H2      17.177640   18.235417   23.242068 H          1 MOL1         0.0740
       7    C3      18.785449   19.692099   22.985388 C.3        1 MOL1        -0.1882
       8    H3      18.900282   20.706904   22.579762 H          1 MOL1         0.0742
       9    H4      19.037808   19.744904   24.053582 H          1 MOL1         0.0742
      10    C4      19.757831   18.731699   22.266740 C.3        1 MOL1        -0.1880
      11    H5      19.492457   18.680818   21.202712 H          1 MOL1         0.0742
      12    H6      19.642410   17.718661   22.675749 H          1 MOL1         0.0742
      13    C5      21.227344   19.186555   22.421334 C.3        1 MOL1        -0.1880
      14    H7      21.357574   20.178582   21.967616 H          1 MOL1         0.0742
      15    H8      21.455617   19.300768   23.489876 H          1 MOL1         0.0742
      16    C6      22.244841   18.198553   21.805003 C.3        1 MOL1        -0.1856
      17    H9      22.121897   17.206502   22.261105 H          1 MOL1         0.0742
      18    H10     23.259841   18.533405   22.059728 H          1 MOL1         0.0742
      19    C7      22.130813   18.082079   20.269541 C.3        1 MOL1        -0.2871
      20    H11     22.220702   19.066952   19.793011 H          1 MOL1         0.0754
      21    H12     21.171547   17.641044   19.971211 H          1 MOL1         0.0754
      22    H13     22.928601   17.440778   19.873072 H          1 MOL1         0.0754
@<TRIPOS>BOND
    1     1     2    1
    2     1     3    2
    3     1     4    1
    4     4     5    1
    5     4     6    1
    6     4     7    1
    7     7     8    1
    8     7     9    1
    9     7    10    1
   10    10    11    1
   11    10    12    1
   12    10    13    1
   13    13    14    1
   14    13    15    1
   15    13    16    1
   16    16    17    1
   17    16    18    1
   18    16    19    1
   19    19    20    1
   20    19    21    1
   21    19    22    1
@<TRIPOS>SUBSTRUCTURE
       1 MOL1            1 RESIDUE      1      MOL     
@<SCITEGIC>MOL_PROPERTY
VConf Rank
SciTegic.value.IntegerValue
204

@<SCITEGIC>MOL_PROPERTY
Conf_Id
SciTegic.value.IntegerValue
38

@<SCITEGIC>MOL_PROPERTY
Delta U+W
SciTegic.value.DoubleValue
-0.439

@<SCITEGIC>MOL_PROPERTY
U+W
SciTegic.value.DoubleValue
-53.598

@<SCITEGIC>MOL_PROPERTY
Grad RMS
SciTegic.value.DoubleValue
0.000000

@<SCITEGIC>MOL_PROPERTY
U
SciTegic.value.DoubleValue
6.751

@<SCITEGIC>MOL_PROPERTY
W
SciTegic.value.DoubleValue
-60.350

@<SCITEGIC>MOL_PROPERTY
W(PB)
SciTegic.value.DoubleValue
-62.659

@<SCITEGIC>MOL_PROPERTY
W(SA)
SciTegic.value.DoubleValue
2.309

@<SCITEGIC>MOL_PROPERTY
Valence
SciTegic.value.DoubleValue
7.602

@<SCITEGIC>MOL_PROPERTY
Coulomb
SciTegic.value.DoubleValue
-1.744

@<SCITEGIC>MOL_PROPERTY
VdW
SciTegic.value.DoubleValue
0.893

@<SCITEGIC>MOL_PROPERTY
VdW6
SciTegic.value.DoubleValue
-7.110

@<SCITEGIC>MOL_PROPERTY
VdW12
SciTegic.value.DoubleValue
8.004

@<SCITEGIC>MOL_PROPERTY
Bond
SciTegic.value.DoubleValue
0.131

@<SCITEGIC>MOL_PROPERTY
Angle
SciTegic.value.DoubleValue
2.489

@<SCITEGIC>MOL_PROPERTY
Pdih
SciTegic.value.DoubleValue
4.981

@<SCITEGIC>MOL_PROPERTY
Idih
SciTegic.value.DoubleValue
0.001

@<SCITEGIC>MOL_PROPERTY
Tether
SciTegic.value.DoubleValue
0.000

@<TRIPOS>MOLECULE
guest-s21_confgen4.mol2 : confsearch ligand conformer 205
          22          21           1
SMALL
USER_CHARGES
 
@<TRIPOS>ATOM
       1    C1      18.532915   15.559045   22.921979 C.2        1 MOL1         0.6145
       2    O1      17.534465   15.343545   23.580173 O.co2      1 MOL1        -0.6735
       3    O2      19.398466   14.730052   22.721667 O.co2      1 MOL1        -0.6735
       4    C2      18.720732   16.953120   22.334127 C.3        1 MOL1        -0.1985
       5    H1      17.729332   17.361889   22.105106 H          1 MOL1         0.0740
       6    H2      19.255421   16.843954   21.384047 H          1 MOL1         0.0740
       7    C3      19.485839   17.907678   23.287564 C.3        1 MOL1        -0.1882
       8    H3      18.974871   17.915713   24.260340 H          1 MOL1         0.0742
       9    H4      20.494788   17.513136   23.471013 H          1 MOL1         0.0742
      10    C4      19.579411   19.361899   22.766791 C.3        1 MOL1        -0.1880
      11    H5      20.005948   19.981635   23.565742 H          1 MOL1         0.0742
      12    H6      18.569655   19.750282   22.576480 H          1 MOL1         0.0742
      13    C5      20.443368   19.503624   21.489483 C.3        1 MOL1        -0.1880
      14    H7      21.452563   19.113554   21.679418 H          1 MOL1         0.0742
      15    H8      20.016250   18.886772   20.688768 H          1 MOL1         0.0742
      16    C6      20.540196   20.957875   20.971899 C.3        1 MOL1        -0.1856
      17    H9      19.531989   21.355741   20.791582 H          1 MOL1         0.0742
      18    H10     21.049253   20.950957   19.998216 H          1 MOL1         0.0742
      19    C7      21.308540   21.899272   21.924827 C.3        1 MOL1        -0.2871
      20    H11     20.773299   22.035940   22.872594 H          1 MOL1         0.0754
      21    H12     21.431606   22.889828   21.468130 H          1 MOL1         0.0754
      22    H13     22.308051   21.503324   22.146927 H          1 MOL1         0.0754
@<TRIPOS>BOND
    1     1     2    1
    2     1     3    2
    3     1     4    1
    4     4     5    1
    5     4     6    1
    6     4     7    1
    7     7     8    1
    8     7     9    1
    9     7    10    1
   10    10    11    1
   11    10    12    1
   12    10    13    1
   13    13    14    1
   14    13    15    1
   15    13    16    1
   16    16    17    1
   17    16    18    1
   18    16    19    1
   19    19    20    1
   20    19    21    1
   21    19    22    1
@<TRIPOS>SUBSTRUCTURE
       1 MOL1            1 RESIDUE      1      MOL     
@<SCITEGIC>MOL_PROPERTY
VConf Rank
SciTegic.value.IntegerValue
205

@<SCITEGIC>MOL_PROPERTY
Conf_Id
SciTegic.value.IntegerValue
60

@<SCITEGIC>MOL_PROPERTY
Delta U+W
SciTegic.value.DoubleValue
0.386

@<SCITEGIC>MOL_PROPERTY
U+W
SciTegic.value.DoubleValue
-52.773

@<SCITEGIC>MOL_PROPERTY
Grad RMS
SciTegic.value.DoubleValue
0.000000

@<SCITEGIC>MOL_PROPERTY
U
SciTegic.value.DoubleValue
7.689

@<SCITEGIC>MOL_PROPERTY
W
SciTegic.value.DoubleValue
-60.463

@<SCITEGIC>MOL_PROPERTY
W(PB)
SciTegic.value.DoubleValue
-62.772

@<SCITEGIC>MOL_PROPERTY
W(SA)
SciTegic.value.DoubleValue
2.309

@<SCITEGIC>MOL_PROPERTY
Valence
SciTegic.value.DoubleValue
8.197

@<SCITEGIC>MOL_PROPERTY
Coulomb
SciTegic.value.DoubleValue
-1.561

@<SCITEGIC>MOL_PROPERTY
VdW
SciTegic.value.DoubleValue
1.053

@<SCITEGIC>MOL_PROPERTY
VdW6
SciTegic.value.DoubleValue
-7.737

@<SCITEGIC>MOL_PROPERTY
VdW12
SciTegic.value.DoubleValue
8.790

@<SCITEGIC>MOL_PROPERTY
Bond
SciTegic.value.DoubleValue
0.181

@<SCITEGIC>MOL_PROPERTY
Angle
SciTegic.value.DoubleValue
2.780

@<SCITEGIC>MOL_PROPERTY
Pdih
SciTegic.value.DoubleValue
5.235

@<SCITEGIC>MOL_PROPERTY
Idih
SciTegic.value.DoubleValue
0.001

@<SCITEGIC>MOL_PROPERTY
Tether
SciTegic.value.DoubleValue
0.000

@<TRIPOS>MOLECULE
guest-s21_confgen4.mol2 : confsearch ligand conformer 206
          22          21           1
SMALL
USER_CHARGES
 
@<TRIPOS>ATOM
       1    C1      20.317927   22.670458   22.445512 C.2        1 MOL1         0.6145
       2    O1      19.246049   23.214768   22.622539 O.co2      1 MOL1        -0.6735
       3    O2      21.307542   23.248749   22.042024 O.co2      1 MOL1        -0.6735
       4    C2      20.421043   21.174973   22.723326 C.3        1 MOL1        -0.1985
       5    H1      19.747821   20.944470   23.556454 H          1 MOL1         0.0740
       6    H2      21.442286   20.961531   23.060847 H          1 MOL1         0.0740
       7    C3      20.075506   20.309664   21.483384 C.3        1 MOL1        -0.1882
       8    H3      19.034770   20.495364   21.183918 H          1 MOL1         0.0742
       9    H4      20.702703   20.635772   20.642120 H          1 MOL1         0.0742
      10    C4      20.293978   18.793596   21.703675 C.3        1 MOL1        -0.1880
      11    H5      21.332958   18.612358   22.010823 H          1 MOL1         0.0742
      12    H6      20.161844   18.288001   20.738666 H          1 MOL1         0.0742
      13    C5      19.326298   18.177239   22.743731 C.3        1 MOL1        -0.1880
      14    H7      19.459589   18.679769   23.710052 H          1 MOL1         0.0742
      15    H8      18.287354   18.360203   22.437428 H          1 MOL1         0.0742
      16    C6      19.542038   16.661090   22.960210 C.3        1 MOL1        -0.1856
      17    H9      18.917022   16.334171   23.802661 H          1 MOL1         0.0742
      18    H10     20.583439   16.472662   23.255628 H          1 MOL1         0.0742
      19    C7      19.189474   15.807500   21.722576 C.3        1 MOL1        -0.2871
      20    H11     18.162755   16.005422   21.388211 H          1 MOL1         0.0754
      21    H12     19.267244   14.738506   21.959476 H          1 MOL1         0.0754
      22    H13     19.869816   16.011616   20.886576 H          1 MOL1         0.0754
@<TRIPOS>BOND
    1     1     2    1
    2     1     3    2
    3     1     4    1
    4     4     5    1
    5     4     6    1
    6     4     7    1
    7     7     8    1
    8     7     9    1
    9     7    10    1
   10    10    11    1
   11    10    12    1
   12    10    13    1
   13    13    14    1
   14    13    15    1
   15    13    16    1
   16    16    17    1
   17    16    18    1
   18    16    19    1
   19    19    20    1
   20    19    21    1
   21    19    22    1
@<TRIPOS>SUBSTRUCTURE
       1 MOL1            1 RESIDUE      1      MOL     
@<SCITEGIC>MOL_PROPERTY
VConf Rank
SciTegic.value.IntegerValue
206

@<SCITEGIC>MOL_PROPERTY
Conf_Id
SciTegic.value.IntegerValue
28

@<SCITEGIC>MOL_PROPERTY
Delta U+W
SciTegic.value.DoubleValue
0.351

@<SCITEGIC>MOL_PROPERTY
U+W
SciTegic.value.DoubleValue
-52.808

@<SCITEGIC>MOL_PROPERTY
Grad RMS
SciTegic.value.DoubleValue
0.000000

@<SCITEGIC>MOL_PROPERTY
U
SciTegic.value.DoubleValue
7.689

@<SCITEGIC>MOL_PROPERTY
W
SciTegic.value.DoubleValue
-60.498

@<SCITEGIC>MOL_PROPERTY
W(PB)
SciTegic.value.DoubleValue
-62.768

@<SCITEGIC>MOL_PROPERTY
W(SA)
SciTegic.value.DoubleValue
2.270

@<SCITEGIC>MOL_PROPERTY
Valence
SciTegic.value.DoubleValue
8.197

@<SCITEGIC>MOL_PROPERTY
Coulomb
SciTegic.value.DoubleValue
-1.561

@<SCITEGIC>MOL_PROPERTY
VdW
SciTegic.value.DoubleValue
1.053

@<SCITEGIC>MOL_PROPERTY
VdW6
SciTegic.value.DoubleValue
-7.737

@<SCITEGIC>MOL_PROPERTY
VdW12
SciTegic.value.DoubleValue
8.791

@<SCITEGIC>MOL_PROPERTY
Bond
SciTegic.value.DoubleValue
0.181

@<SCITEGIC>MOL_PROPERTY
Angle
SciTegic.value.DoubleValue
2.780

@<SCITEGIC>MOL_PROPERTY
Pdih
SciTegic.value.DoubleValue
5.235

@<SCITEGIC>MOL_PROPERTY
Idih
SciTegic.value.DoubleValue
0.001

@<SCITEGIC>MOL_PROPERTY
Tether
SciTegic.value.DoubleValue
0.000

@<TRIPOS>MOLECULE
guest-s21_confgen4.mol2 : confsearch ligand conformer 207
          22          21           1
SMALL
USER_CHARGES
 
@<TRIPOS>ATOM
       1    C1      16.812041   16.809267   22.154904 C.2        1 MOL1         0.6145
       2    O1      16.079421   16.862729   23.122829 O.co2      1 MOL1        -0.6735
       3    O2      16.412240   16.808059   21.007466 O.co2      1 MOL1        -0.6735
       4    C2      18.317139   16.761113   22.392986 C.3        1 MOL1        -0.1985
       5    H1      18.771371   16.174775   21.585192 H          1 MOL1         0.0740
       6    H2      18.496644   16.217922   23.328581 H          1 MOL1         0.0740
       7    C3      18.961102   18.167979   22.458753 C.3        1 MOL1        -0.1882
       8    H3      18.750765   18.698320   21.520689 H          1 MOL1         0.0742
       9    H4      18.489639   18.745219   23.266107 H          1 MOL1         0.0742
      10    C4      20.487081   18.089414   22.695983 C.3        1 MOL1        -0.1880
      11    H5      20.965148   17.557773   21.861837 H          1 MOL1         0.0742
      12    H6      20.677811   17.490018   23.596710 H          1 MOL1         0.0742
      13    C5      21.154473   19.473206   22.878382 C.3        1 MOL1        -0.1880
      14    H7      20.679411   20.003542   23.715037 H          1 MOL1         0.0742
      15    H8      22.203750   19.318409   23.164708 H          1 MOL1         0.0742
      16    C6      21.105974   20.353253   21.608951 C.3        1 MOL1        -0.1856
      17    H9      20.064942   20.585890   21.349161 H          1 MOL1         0.0742
      18    H10     21.533408   19.802645   20.759636 H          1 MOL1         0.0742
      19    C7      21.880029   21.672289   21.805668 C.3        1 MOL1        -0.2871
      20    H11     22.937190   21.478348   22.029617 H          1 MOL1         0.0754
      21    H12     21.455762   22.256625   22.632671 H          1 MOL1         0.0754
      22    H13     21.833555   22.287099   20.897418 H          1 MOL1         0.0754
@<TRIPOS>BOND
    1     1     2    1
    2     1     3    2
    3     1     4    1
    4     4     5    1
    5     4     6    1
    6     4     7    1
    7     7     8    1
    8     7     9    1
    9     7    10    1
   10    10    11    1
   11    10    12    1
   12    10    13    1
   13    13    14    1
   14    13    15    1
   15    13    16    1
   16    16    17    1
   17    16    18    1
   18    16    19    1
   19    19    20    1
   20    19    21    1
   21    19    22    1
@<TRIPOS>SUBSTRUCTURE
       1 MOL1            1 RESIDUE      1      MOL     
@<SCITEGIC>MOL_PROPERTY
VConf Rank
SciTegic.value.IntegerValue
207

@<SCITEGIC>MOL_PROPERTY
Conf_Id
SciTegic.value.IntegerValue
50

@<SCITEGIC>MOL_PROPERTY
Delta U+W
SciTegic.value.DoubleValue
-0.486

@<SCITEGIC>MOL_PROPERTY
U+W
SciTegic.value.DoubleValue
-53.646

@<SCITEGIC>MOL_PROPERTY
Grad RMS
SciTegic.value.DoubleValue
0.000000

@<SCITEGIC>MOL_PROPERTY
U
SciTegic.value.DoubleValue
7.026

@<SCITEGIC>MOL_PROPERTY
W
SciTegic.value.DoubleValue
-60.672

@<SCITEGIC>MOL_PROPERTY
W(PB)
SciTegic.value.DoubleValue
-62.964

@<SCITEGIC>MOL_PROPERTY
W(SA)
SciTegic.value.DoubleValue
2.292

@<SCITEGIC>MOL_PROPERTY
Valence
SciTegic.value.DoubleValue
7.637

@<SCITEGIC>MOL_PROPERTY
Coulomb
SciTegic.value.DoubleValue
-1.488

@<SCITEGIC>MOL_PROPERTY
VdW
SciTegic.value.DoubleValue
0.877

@<SCITEGIC>MOL_PROPERTY
VdW6
SciTegic.value.DoubleValue
-7.165

@<SCITEGIC>MOL_PROPERTY
VdW12
SciTegic.value.DoubleValue
8.043

@<SCITEGIC>MOL_PROPERTY
Bond
SciTegic.value.DoubleValue
0.134

@<SCITEGIC>MOL_PROPERTY
Angle
SciTegic.value.DoubleValue
2.513

@<SCITEGIC>MOL_PROPERTY
Pdih
SciTegic.value.DoubleValue
4.990

@<SCITEGIC>MOL_PROPERTY
Idih
SciTegic.value.DoubleValue
0.001

@<SCITEGIC>MOL_PROPERTY
Tether
SciTegic.value.DoubleValue
0.000

@<TRIPOS>MOLECULE
guest-s21_confgen4.mol2 : confsearch ligand conformer 208
          22          21           1
SMALL
USER_CHARGES
 
@<TRIPOS>ATOM
       1    C1      16.788264   16.730782   22.180475 C.2        1 MOL1         0.6145
       2    O1      16.071332   16.724824   23.161518 O.co2      1 MOL1        -0.6735
       3    O2      17.119366   15.726021   21.582744 O.co2      1 MOL1        -0.6735
       4    C2      17.318280   18.071369   21.684251 C.3        1 MOL1        -0.1985
       5    H1      16.560768   18.835915   21.894634 H          1 MOL1         0.0740
       6    H2      17.426202   18.012887   20.594489 H          1 MOL1         0.0740
       7    C3      18.668428   18.462365   22.334266 C.3        1 MOL1        -0.1882
       8    H3      18.545974   18.507816   23.425248 H          1 MOL1         0.0742
       9    H4      19.403331   17.673443   22.126931 H          1 MOL1         0.0742
      10    C4      19.184403   19.822534   21.810073 C.3        1 MOL1        -0.1880
      11    H5      18.403808   20.581328   21.957945 H          1 MOL1         0.0742
      12    H6      19.357012   19.761164   20.726824 H          1 MOL1         0.0742
      13    C5      20.475277   20.304592   22.513512 C.3        1 MOL1        -0.1880
      14    H7      20.696976   21.325136   22.172534 H          1 MOL1         0.0742
      15    H8      20.301917   20.369908   23.596384 H          1 MOL1         0.0742
      16    C6      21.701355   19.405858   22.235486 C.3        1 MOL1        -0.1856
      17    H9      21.843292   19.297467   21.151368 H          1 MOL1         0.0742
      18    H10     21.531948   18.398984   22.639051 H          1 MOL1         0.0742
      19    C7      22.983328   19.988376   22.863925 C.3        1 MOL1        -0.2871
      20    H11     22.878918   20.082083   23.952825 H          1 MOL1         0.0754
      21    H12     23.205899   20.982188   22.453856 H          1 MOL1         0.0754
      22    H13     23.843789   19.337717   22.660655 H          1 MOL1         0.0754
@<TRIPOS>BOND
    1     1     2    1
    2     1     3    2
    3     1     4    1
    4     4     5    1
    5     4     6    1
    6     4     7    1
    7     7     8    1
    8     7     9    1
    9     7    10    1
   10    10    11    1
   11    10    12    1
   12    10    13    1
   13    13    14    1
   14    13    15    1
   15    13    16    1
   16    16    17    1
   17    16    18    1
   18    16    19    1
   19    19    20    1
   20    19    21    1
   21    19    22    1
@<TRIPOS>SUBSTRUCTURE
       1 MOL1            1 RESIDUE      1      MOL     
@<SCITEGIC>MOL_PROPERTY
VConf Rank
SciTegic.value.IntegerValue
208

@<SCITEGIC>MOL_PROPERTY
Conf_Id
SciTegic.value.IntegerValue
51

@<SCITEGIC>MOL_PROPERTY
Delta U+W
SciTegic.value.DoubleValue
-0.517

@<SCITEGIC>MOL_PROPERTY
U+W
SciTegic.value.DoubleValue
-53.677

@<SCITEGIC>MOL_PROPERTY
Grad RMS
SciTegic.value.DoubleValue
0.000000

@<SCITEGIC>MOL_PROPERTY
U
SciTegic.value.DoubleValue
7.026

@<SCITEGIC>MOL_PROPERTY
W
SciTegic.value.DoubleValue
-60.703

@<SCITEGIC>MOL_PROPERTY
W(PB)
SciTegic.value.DoubleValue
-63.007

@<SCITEGIC>MOL_PROPERTY
W(SA)
SciTegic.value.DoubleValue
2.304

@<SCITEGIC>MOL_PROPERTY
Valence
SciTegic.value.DoubleValue
7.638

@<SCITEGIC>MOL_PROPERTY
Coulomb
SciTegic.value.DoubleValue
-1.488

@<SCITEGIC>MOL_PROPERTY
VdW
SciTegic.value.DoubleValue
0.877

@<SCITEGIC>MOL_PROPERTY
VdW6
SciTegic.value.DoubleValue
-7.165

@<SCITEGIC>MOL_PROPERTY
VdW12
SciTegic.value.DoubleValue
8.042

@<SCITEGIC>MOL_PROPERTY
Bond
SciTegic.value.DoubleValue
0.134

@<SCITEGIC>MOL_PROPERTY
Angle
SciTegic.value.DoubleValue
2.513

@<SCITEGIC>MOL_PROPERTY
Pdih
SciTegic.value.DoubleValue
4.990

@<SCITEGIC>MOL_PROPERTY
Idih
SciTegic.value.DoubleValue
0.001

@<SCITEGIC>MOL_PROPERTY
Tether
SciTegic.value.DoubleValue
0.000

@<TRIPOS>MOLECULE
guest-s21_confgen4.mol2 : confsearch ligand conformer 209
          22          21           1
SMALL
USER_CHARGES
 
@<TRIPOS>ATOM
       1    C1      22.606713   20.984826   23.154402 C.2        1 MOL1         0.6145
       2    O1      23.682809   20.577781   22.762952 O.co2      1 MOL1        -0.6735
       3    O2      22.110884   22.032504   22.789280 O.co2      1 MOL1        -0.6735
       4    C2      21.846980   20.141626   24.174674 C.3        1 MOL1        -0.1985
       5    H1      21.104495   20.777869   24.671481 H          1 MOL1         0.0740
       6    H2      22.564612   19.831749   24.943454 H          1 MOL1         0.0740
       7    C3      21.160700   18.888527   23.571552 C.3        1 MOL1        -0.1882
       8    H3      21.911869   18.276014   23.053647 H          1 MOL1         0.0742
       9    H4      20.760128   18.273506   24.388762 H          1 MOL1         0.0742
      10    C4      20.016804   19.248585   22.597157 C.3        1 MOL1        -0.1880
      11    H5      20.413089   19.849855   21.767193 H          1 MOL1         0.0742
      12    H6      19.275378   19.871643   23.115906 H          1 MOL1         0.0742
      13    C5      19.327710   17.987313   22.033423 C.3        1 MOL1        -0.1880
      14    H7      20.069760   17.364811   21.514810 H          1 MOL1         0.0742
      15    H8      18.928045   17.385769   22.861355 H          1 MOL1         0.0742
      16    C6      18.185742   18.346085   21.059649 C.3        1 MOL1        -0.1856
      17    H9      18.582179   18.946435   20.229035 H          1 MOL1         0.0742
      18    H10     17.440561   18.967474   21.575443 H          1 MOL1         0.0742
      19    C7      17.500419   17.084126   20.498269 C.3        1 MOL1        -0.2871
      20    H11     18.217167   16.459080   19.949643 H          1 MOL1         0.0754
      21    H12     16.691630   17.357638   19.808242 H          1 MOL1         0.0754
      22    H13     17.066956   16.480210   21.306224 H          1 MOL1         0.0754
@<TRIPOS>BOND
    1     1     2    1
    2     1     3    2
    3     1     4    1
    4     4     5    1
    5     4     6    1
    6     4     7    1
    7     7     8    1
    8     7     9    1
    9     7    10    1
   10    10    11    1
   11    10    12    1
   12    10    13    1
   13    13    14    1
   14    13    15    1
   15    13    16    1
   16    16    17    1
   17    16    18    1
   18    16    19    1
   19    19    20    1
   20    19    21    1
   21    19    22    1
@<TRIPOS>SUBSTRUCTURE
       1 MOL1            1 RESIDUE      1      MOL     
@<SCITEGIC>MOL_PROPERTY
VConf Rank
SciTegic.value.IntegerValue
209

@<SCITEGIC>MOL_PROPERTY
Conf_Id
SciTegic.value.IntegerValue
43

@<SCITEGIC>MOL_PROPERTY
Delta U+W
SciTegic.value.DoubleValue
-0.129

@<SCITEGIC>MOL_PROPERTY
U+W
SciTegic.value.DoubleValue
-53.289

@<SCITEGIC>MOL_PROPERTY
Grad RMS
SciTegic.value.DoubleValue
0.000000

@<SCITEGIC>MOL_PROPERTY
U
SciTegic.value.DoubleValue
7.937

@<SCITEGIC>MOL_PROPERTY
W
SciTegic.value.DoubleValue
-61.225

@<SCITEGIC>MOL_PROPERTY
W(PB)
SciTegic.value.DoubleValue
-63.523

@<SCITEGIC>MOL_PROPERTY
W(SA)
SciTegic.value.DoubleValue
2.297

@<SCITEGIC>MOL_PROPERTY
Valence
SciTegic.value.DoubleValue
7.358

@<SCITEGIC>MOL_PROPERTY
Coulomb
SciTegic.value.DoubleValue
-0.022

@<SCITEGIC>MOL_PROPERTY
VdW
SciTegic.value.DoubleValue
0.601

@<SCITEGIC>MOL_PROPERTY
VdW6
SciTegic.value.DoubleValue
-7.363

@<SCITEGIC>MOL_PROPERTY
VdW12
SciTegic.value.DoubleValue
7.964

@<SCITEGIC>MOL_PROPERTY
Bond
SciTegic.value.DoubleValue
0.121

@<SCITEGIC>MOL_PROPERTY
Angle
SciTegic.value.DoubleValue
2.425

@<SCITEGIC>MOL_PROPERTY
Pdih
SciTegic.value.DoubleValue
4.811

@<SCITEGIC>MOL_PROPERTY
Idih
SciTegic.value.DoubleValue
0.000

@<SCITEGIC>MOL_PROPERTY
Tether
SciTegic.value.DoubleValue
0.000

@<TRIPOS>MOLECULE
guest-s21_confgen4.mol2 : confsearch ligand conformer 210
          22          21           1
SMALL
USER_CHARGES
 
@<TRIPOS>ATOM
       1    C1      19.512042   20.808014   19.347857 C.2        1 MOL1         0.6145
       2    O1      19.074034   21.934643   19.473393 O.co2      1 MOL1        -0.6735
       3    O2      18.974160   19.948254   18.678314 O.co2      1 MOL1        -0.6735
       4    C2      20.818909   20.461690   20.055872 C.3        1 MOL1        -0.1985
       5    H1      21.519513   21.284747   19.872096 H          1 MOL1         0.0740
       6    H2      21.247024   19.569019   19.583898 H          1 MOL1         0.0740
       7    C3      20.669258   20.240230   21.583472 C.3        1 MOL1        -0.1882
       8    H3      21.668225   20.134697   22.027845 H          1 MOL1         0.0742
       9    H4      20.213648   21.131273   22.037471 H          1 MOL1         0.0742
      10    C4      19.826132   18.990648   21.922991 C.3        1 MOL1        -0.1880
      11    H5      20.278349   18.104922   21.456083 H          1 MOL1         0.0742
      12    H6      18.819166   19.096419   21.496096 H          1 MOL1         0.0742
      13    C5      19.716585   18.771752   23.447307 C.3        1 MOL1        -0.1880
      14    H7      20.722209   18.662829   23.876160 H          1 MOL1         0.0742
      15    H8      19.264246   19.657863   23.913467 H          1 MOL1         0.0742
      16    C6      18.874085   17.524457   23.787161 C.3        1 MOL1        -0.1856
      17    H9      19.324499   16.635676   23.323849 H          1 MOL1         0.0742
      18    H10     17.866705   17.630658   23.361239 H          1 MOL1         0.0742
      19    C7      18.766380   17.309436   25.310159 C.3        1 MOL1        -0.2871
      20    H11     19.758816   17.168752   25.758126 H          1 MOL1         0.0754
      21    H12     18.164394   16.419041   25.533531 H          1 MOL1         0.0754
      22    H13     18.290008   18.171217   25.795756 H          1 MOL1         0.0754
@<TRIPOS>BOND
    1     1     2    1
    2     1     3    2
    3     1     4    1
    4     4     5    1
    5     4     6    1
    6     4     7    1
    7     7     8    1
    8     7     9    1
    9     7    10    1
   10    10    11    1
   11    10    12    1
   12    10    13    1
   13    13    14    1
   14    13    15    1
   15    13    16    1
   16    16    17    1
   17    16    18    1
   18    16    19    1
   19    19    20    1
   20    19    21    1
   21    19    22    1
@<TRIPOS>SUBSTRUCTURE
       1 MOL1            1 RESIDUE      1      MOL     
@<SCITEGIC>MOL_PROPERTY
VConf Rank
SciTegic.value.IntegerValue
210

@<SCITEGIC>MOL_PROPERTY
Conf_Id
SciTegic.value.IntegerValue
44

@<SCITEGIC>MOL_PROPERTY
Delta U+W
SciTegic.value.DoubleValue
-0.155

@<SCITEGIC>MOL_PROPERTY
U+W
SciTegic.value.DoubleValue
-53.314

@<SCITEGIC>MOL_PROPERTY
Grad RMS
SciTegic.value.DoubleValue
0.000000

@<SCITEGIC>MOL_PROPERTY
U
SciTegic.value.DoubleValue
7.937

@<SCITEGIC>MOL_PROPERTY
W
SciTegic.value.DoubleValue
-61.252

@<SCITEGIC>MOL_PROPERTY
W(PB)
SciTegic.value.DoubleValue
-63.556

@<SCITEGIC>MOL_PROPERTY
W(SA)
SciTegic.value.DoubleValue
2.304

@<SCITEGIC>MOL_PROPERTY
Valence
SciTegic.value.DoubleValue
7.358

@<SCITEGIC>MOL_PROPERTY
Coulomb
SciTegic.value.DoubleValue
-0.021

@<SCITEGIC>MOL_PROPERTY
VdW
SciTegic.value.DoubleValue
0.600

@<SCITEGIC>MOL_PROPERTY
VdW6
SciTegic.value.DoubleValue
-7.363

@<SCITEGIC>MOL_PROPERTY
VdW12
SciTegic.value.DoubleValue
7.964

@<SCITEGIC>MOL_PROPERTY
Bond
SciTegic.value.DoubleValue
0.121

@<SCITEGIC>MOL_PROPERTY
Angle
SciTegic.value.DoubleValue
2.425

@<SCITEGIC>MOL_PROPERTY
Pdih
SciTegic.value.DoubleValue
4.811

@<SCITEGIC>MOL_PROPERTY
Idih
SciTegic.value.DoubleValue
0.001

@<SCITEGIC>MOL_PROPERTY
Tether
SciTegic.value.DoubleValue
0.000

@<TRIPOS>MOLECULE
guest-s21_confgen4.mol2 : confsearch ligand conformer 211
          22          21           1
SMALL
USER_CHARGES
 
@<TRIPOS>ATOM
       1    C1      18.184695   16.716399   24.486409 C.2        1 MOL1         0.6145
       2    O1      18.957473   15.848329   24.841648 O.co2      1 MOL1        -0.6735
       3    O2      17.076384   16.489206   24.042680 O.co2      1 MOL1        -0.6735
       4    C2      18.624816   18.171296   24.623804 C.3        1 MOL1        -0.1985
       5    H1      19.067222   18.286305   25.620338 H          1 MOL1         0.0740
       6    H2      17.734447   18.811113   24.596102 H          1 MOL1         0.0740
       7    C3      19.645555   18.627687   23.548897 C.3        1 MOL1        -0.1882
       8    H3      20.014439   19.624613   23.821347 H          1 MOL1         0.0742
       9    H4      20.513125   17.953474   23.561580 H          1 MOL1         0.0742
      10    C4      19.033353   18.668472   22.128068 C.3        1 MOL1        -0.1880
      11    H5      18.192400   19.374979   22.106879 H          1 MOL1         0.0742
      12    H6      18.614046   17.681822   21.887870 H          1 MOL1         0.0742
      13    C5      20.053858   19.043721   21.027349 C.3        1 MOL1        -0.1880
      14    H7      20.894748   18.337074   21.049051 H          1 MOL1         0.0742
      15    H8      19.570145   18.920405   20.048718 H          1 MOL1         0.0742
      16    C6      20.585127   20.490254   21.144476 C.3        1 MOL1        -0.1856
      17    H9      21.143291   20.614077   22.081672 H          1 MOL1         0.0742
      18    H10     19.741512   21.193389   21.177786 H          1 MOL1         0.0742
      19    C7      21.506185   20.851536   19.961739 C.3        1 MOL1        -0.2871
      20    H11     22.373807   20.180019   19.920732 H          1 MOL1         0.0754
      21    H12     21.877708   21.879735   20.060930 H          1 MOL1         0.0754
      22    H13     20.968721   20.776247   19.007369 H          1 MOL1         0.0754
@<TRIPOS>BOND
    1     1     2    1
    2     1     3    2
    3     1     4    1
    4     4     5    1
    5     4     6    1
    6     4     7    1
    7     7     8    1
    8     7     9    1
    9     7    10    1
   10    10    11    1
   11    10    12    1
   12    10    13    1
   13    13    14    1
   14    13    15    1
   15    13    16    1
   16    16    17    1
   17    16    18    1
   18    16    19    1
   19    19    20    1
   20    19    21    1
   21    19    22    1
@<TRIPOS>SUBSTRUCTURE
       1 MOL1            1 RESIDUE      1      MOL     
@<SCITEGIC>MOL_PROPERTY
VConf Rank
SciTegic.value.IntegerValue
211

@<SCITEGIC>MOL_PROPERTY
Conf_Id
SciTegic.value.IntegerValue
53

@<SCITEGIC>MOL_PROPERTY
Delta U+W
SciTegic.value.DoubleValue
0.723

@<SCITEGIC>MOL_PROPERTY
U+W
SciTegic.value.DoubleValue
-52.436

@<SCITEGIC>MOL_PROPERTY
Grad RMS
SciTegic.value.DoubleValue
0.000000

@<SCITEGIC>MOL_PROPERTY
U
SciTegic.value.DoubleValue
8.587

@<SCITEGIC>MOL_PROPERTY
W
SciTegic.value.DoubleValue
-61.022

@<SCITEGIC>MOL_PROPERTY
W(PB)
SciTegic.value.DoubleValue
-63.285

@<SCITEGIC>MOL_PROPERTY
W(SA)
SciTegic.value.DoubleValue
2.263

@<SCITEGIC>MOL_PROPERTY
Valence
SciTegic.value.DoubleValue
7.933

@<SCITEGIC>MOL_PROPERTY
Coulomb
SciTegic.value.DoubleValue
-0.124

@<SCITEGIC>MOL_PROPERTY
VdW
SciTegic.value.DoubleValue
0.778

@<SCITEGIC>MOL_PROPERTY
VdW6
SciTegic.value.DoubleValue
-7.981

@<SCITEGIC>MOL_PROPERTY
VdW12
SciTegic.value.DoubleValue
8.759

@<SCITEGIC>MOL_PROPERTY
Bond
SciTegic.value.DoubleValue
0.160

@<SCITEGIC>MOL_PROPERTY
Angle
SciTegic.value.DoubleValue
2.698

@<SCITEGIC>MOL_PROPERTY
Pdih
SciTegic.value.DoubleValue
5.074

@<SCITEGIC>MOL_PROPERTY
Idih
SciTegic.value.DoubleValue
0.001

@<SCITEGIC>MOL_PROPERTY
Tether
SciTegic.value.DoubleValue
0.000

@<TRIPOS>MOLECULE
guest-s21_confgen4.mol2 : confsearch ligand conformer 212
          22          21           1
SMALL
USER_CHARGES
 
@<TRIPOS>ATOM
       1    C1      21.364135   16.239504   23.379673 C.2        1 MOL1         0.6145
       2    O1      20.803052   15.260472   22.928840 O.co2      1 MOL1        -0.6735
       3    O2      22.388539   16.187205   24.031166 O.co2      1 MOL1        -0.6735
       4    C2      20.762202   17.610572   23.093582 C.3        1 MOL1        -0.1985
       5    H1      20.997362   18.269221   23.938072 H          1 MOL1         0.0740
       6    H2      19.673265   17.493409   23.058684 H          1 MOL1         0.0740
       7    C3      21.279925   18.229155   21.770535 C.3        1 MOL1        -0.1882
       8    H3      22.378509   18.207270   21.778036 H          1 MOL1         0.0742
       9    H4      20.965797   17.596629   20.928816 H          1 MOL1         0.0742
      10    C4      20.819357   19.687867   21.524158 C.3        1 MOL1        -0.1880
      11    H5      21.285546   20.028161   20.589377 H          1 MOL1         0.0742
      12    H6      21.213392   20.346024   22.310619 H          1 MOL1         0.0742
      13    C5      19.285742   19.867125   21.391492 C.3        1 MOL1        -0.1880
      14    H7      19.089807   20.639347   20.635003 H          1 MOL1         0.0742
      15    H8      18.829289   18.943405   21.010237 H          1 MOL1         0.0742
      16    C6      18.603052   20.301485   22.709073 C.3        1 MOL1        -0.1856
      17    H9      19.030332   21.255632   23.047050 H          1 MOL1         0.0742
      18    H10     18.797648   19.571661   23.503966 H          1 MOL1         0.0742
      19    C7      17.079920   20.461261   22.530542 C.3        1 MOL1        -0.2871
      20    H11     16.850558   21.216949   21.767875 H          1 MOL1         0.0754
      21    H12     16.611061   20.776417   23.471754 H          1 MOL1         0.0754
      22    H13     16.619497   19.513095   22.223376 H          1 MOL1         0.0754
@<TRIPOS>BOND
    1     1     2    1
    2     1     3    2
    3     1     4    1
    4     4     5    1
    5     4     6    1
    6     4     7    1
    7     7     8    1
    8     7     9    1
    9     7    10    1
   10    10    11    1
   11    10    12    1
   12    10    13    1
   13    13    14    1
   14    13    15    1
   15    13    16    1
   16    16    17    1
   17    16    18    1
   18    16    19    1
   19    19    20    1
   20    19    21    1
   21    19    22    1
@<TRIPOS>SUBSTRUCTURE
       1 MOL1            1 RESIDUE      1      MOL     
@<SCITEGIC>MOL_PROPERTY
VConf Rank
SciTegic.value.IntegerValue
212

@<SCITEGIC>MOL_PROPERTY
Conf_Id
SciTegic.value.IntegerValue
5

@<SCITEGIC>MOL_PROPERTY
Delta U+W
SciTegic.value.DoubleValue
2.167

@<SCITEGIC>MOL_PROPERTY
U+W
SciTegic.value.DoubleValue
-50.993

@<SCITEGIC>MOL_PROPERTY
Grad RMS
SciTegic.value.DoubleValue
0.000000

@<SCITEGIC>MOL_PROPERTY
U
SciTegic.value.DoubleValue
10.045

@<SCITEGIC>MOL_PROPERTY
W
SciTegic.value.DoubleValue
-61.037

@<SCITEGIC>MOL_PROPERTY
W(PB)
SciTegic.value.DoubleValue
-63.303

@<SCITEGIC>MOL_PROPERTY
W(SA)
SciTegic.value.DoubleValue
2.266

@<SCITEGIC>MOL_PROPERTY
Valence
SciTegic.value.DoubleValue
10.100

@<SCITEGIC>MOL_PROPERTY
Coulomb
SciTegic.value.DoubleValue
-0.883

@<SCITEGIC>MOL_PROPERTY
VdW
SciTegic.value.DoubleValue
0.828

@<SCITEGIC>MOL_PROPERTY
VdW6
SciTegic.value.DoubleValue
-8.177

@<SCITEGIC>MOL_PROPERTY
VdW12
SciTegic.value.DoubleValue
9.005

@<SCITEGIC>MOL_PROPERTY
Bond
SciTegic.value.DoubleValue
0.182

@<SCITEGIC>MOL_PROPERTY
Angle
SciTegic.value.DoubleValue
2.988

@<SCITEGIC>MOL_PROPERTY
Pdih
SciTegic.value.DoubleValue
6.930

@<SCITEGIC>MOL_PROPERTY
Idih
SciTegic.value.DoubleValue
0.001

@<SCITEGIC>MOL_PROPERTY
Tether
SciTegic.value.DoubleValue
0.000

@<TRIPOS>MOLECULE
guest-s21_confgen4.mol2 : confsearch ligand conformer 213
          22          21           1
SMALL
USER_CHARGES
 
@<TRIPOS>ATOM
       1    C1      19.333254   18.893327   25.650478 C.2        1 MOL1         0.6145
       2    O1      20.238064   19.488785   26.201221 O.co2      1 MOL1        -0.6735
       3    O2      18.437463   18.329728   26.247554 O.co2      1 MOL1        -0.6735
       4    C2      19.334130   18.830307   24.127314 C.3        1 MOL1        -0.1985
       5    H1      19.760616   19.769413   23.757285 H          1 MOL1         0.0740
       6    H2      18.292751   18.783051   23.787348 H          1 MOL1         0.0740
       7    C3      20.133355   17.622188   23.577016 C.3        1 MOL1        -0.1882
       8    H3      21.189614   17.728606   23.860298 H          1 MOL1         0.0742
       9    H4      19.773651   16.708352   24.069905 H          1 MOL1         0.0742
      10    C4      20.023859   17.428860   22.043619 C.3        1 MOL1        -0.1880
      11    H5      18.981942   17.222986   21.762589 H          1 MOL1         0.0742
      12    H6      20.587398   16.522296   21.783787 H          1 MOL1         0.0742
      13    C5      20.585411   18.603435   21.202938 C.3        1 MOL1        -0.1880
      14    H7      21.376052   19.123136   21.761292 H          1 MOL1         0.0742
      15    H8      21.066283   18.190417   20.305624 H          1 MOL1         0.0742
      16    C6      19.499512   19.605579   20.747651 C.3        1 MOL1        -0.1856
      17    H9      18.971126   20.022517   21.613293 H          1 MOL1         0.0742
      18    H10     18.746795   19.081831   20.142423 H          1 MOL1         0.0742
      19    C7      20.104652   20.757869   19.920991 C.3        1 MOL1        -0.2871
      20    H11     20.838880   21.320945   20.511934 H          1 MOL1         0.0754
      21    H12     19.321150   21.456258   19.599418 H          1 MOL1         0.0754
      22    H13     20.607513   20.375688   19.022992 H          1 MOL1         0.0754
@<TRIPOS>BOND
    1     1     2    1
    2     1     3    2
    3     1     4    1
    4     4     5    1
    5     4     6    1
    6     4     7    1
    7     7     8    1
    8     7     9    1
    9     7    10    1
   10    10    11    1
   11    10    12    1
   12    10    13    1
   13    13    14    1
   14    13    15    1
   15    13    16    1
   16    16    17    1
   17    16    18    1
   18    16    19    1
   19    19    20    1
   20    19    21    1
   21    19    22    1
@<TRIPOS>SUBSTRUCTURE
       1 MOL1            1 RESIDUE      1      MOL     
@<SCITEGIC>MOL_PROPERTY
VConf Rank
SciTegic.value.IntegerValue
213

@<SCITEGIC>MOL_PROPERTY
Conf_Id
SciTegic.value.IntegerValue
6

@<SCITEGIC>MOL_PROPERTY
Delta U+W
SciTegic.value.DoubleValue
2.118

@<SCITEGIC>MOL_PROPERTY
U+W
SciTegic.value.DoubleValue
-51.042

@<SCITEGIC>MOL_PROPERTY
Grad RMS
SciTegic.value.DoubleValue
0.000000

@<SCITEGIC>MOL_PROPERTY
U
SciTegic.value.DoubleValue
10.045

@<SCITEGIC>MOL_PROPERTY
W
SciTegic.value.DoubleValue
-61.086

@<SCITEGIC>MOL_PROPERTY
W(PB)
SciTegic.value.DoubleValue
-63.356

@<SCITEGIC>MOL_PROPERTY
W(SA)
SciTegic.value.DoubleValue
2.270

@<SCITEGIC>MOL_PROPERTY
Valence
SciTegic.value.DoubleValue
10.100

@<SCITEGIC>MOL_PROPERTY
Coulomb
SciTegic.value.DoubleValue
-0.883

@<SCITEGIC>MOL_PROPERTY
VdW
SciTegic.value.DoubleValue
0.828

@<SCITEGIC>MOL_PROPERTY
VdW6
SciTegic.value.DoubleValue
-8.177

@<SCITEGIC>MOL_PROPERTY
VdW12
SciTegic.value.DoubleValue
9.004

@<SCITEGIC>MOL_PROPERTY
Bond
SciTegic.value.DoubleValue
0.182

@<SCITEGIC>MOL_PROPERTY
Angle
SciTegic.value.DoubleValue
2.988

@<SCITEGIC>MOL_PROPERTY
Pdih
SciTegic.value.DoubleValue
6.930

@<SCITEGIC>MOL_PROPERTY
Idih
SciTegic.value.DoubleValue
0.001

@<SCITEGIC>MOL_PROPERTY
Tether
SciTegic.value.DoubleValue
0.000

@<TRIPOS>MOLECULE
guest-s21_confgen4.mol2 : confsearch ligand conformer 214
          22          21           1
SMALL
USER_CHARGES
 
@<TRIPOS>ATOM
       1    C1      20.368735   21.154558   24.038434 C.2        1 MOL1         0.6145
       2    O1      20.203542   22.116823   23.314382 O.co2      1 MOL1        -0.6735
       3    O2      21.464179   20.741546   24.364744 O.co2      1 MOL1        -0.6735
       4    C2      19.136571   20.470044   24.627220 C.3        1 MOL1        -0.1985
       5    H1      18.641019   21.217141   25.257939 H          1 MOL1         0.0740
       6    H2      19.461808   19.662462   25.294209 H          1 MOL1         0.0740
       7    C3      18.115919   19.930317   23.586045 C.3        1 MOL1        -0.1882
       8    H3      17.148453   19.808543   24.091617 H          1 MOL1         0.0742
       9    H4      17.952870   20.678992   22.798343 H          1 MOL1         0.0742
      10    C4      18.492216   18.567407   22.953755 C.3        1 MOL1        -0.1880
      11    H5      17.635457   18.217001   22.362016 H          1 MOL1         0.0742
      12    H6      18.645497   17.822043   23.746072 H          1 MOL1         0.0742
      13    C5      19.738131   18.618679   22.040752 C.3        1 MOL1        -0.1880
      14    H7      19.628381   19.433478   21.311984 H          1 MOL1         0.0742
      15    H8      20.630469   18.840934   22.639415 H          1 MOL1         0.0742
      16    C6      19.954890   17.284415   21.295969 C.3        1 MOL1        -0.1856
      17    H9      19.071887   17.052709   20.684435 H          1 MOL1         0.0742
      18    H10     20.063066   16.468152   22.023586 H          1 MOL1         0.0742
      19    C7      21.203551   17.334688   20.392789 C.3        1 MOL1        -0.2871
      20    H11     21.108212   18.123267   19.634882 H          1 MOL1         0.0754
      21    H12     21.343441   16.378567   19.871936 H          1 MOL1         0.0754
      22    H13     22.107190   17.534763   20.983475 H          1 MOL1         0.0754
@<TRIPOS>BOND
    1     1     2    1
    2     1     3    2
    3     1     4    1
    4     4     5    1
    5     4     6    1
    6     4     7    1
    7     7     8    1
    8     7     9    1
    9     7    10    1
   10    10    11    1
   11    10    12    1
   12    10    13    1
   13    13    14    1
   14    13    15    1
   15    13    16    1
   16    16    17    1
   17    16    18    1
   18    16    19    1
   19    19    20    1
   20    19    21    1
   21    19    22    1
@<TRIPOS>SUBSTRUCTURE
       1 MOL1            1 RESIDUE      1      MOL     
@<SCITEGIC>MOL_PROPERTY
VConf Rank
SciTegic.value.IntegerValue
214

@<SCITEGIC>MOL_PROPERTY
Conf_Id
SciTegic.value.IntegerValue
8

@<SCITEGIC>MOL_PROPERTY
Delta U+W
SciTegic.value.DoubleValue
1.886

@<SCITEGIC>MOL_PROPERTY
U+W
SciTegic.value.DoubleValue
-51.274

@<SCITEGIC>MOL_PROPERTY
Grad RMS
SciTegic.value.DoubleValue
0.000000

@<SCITEGIC>MOL_PROPERTY
U
SciTegic.value.DoubleValue
11.237

@<SCITEGIC>MOL_PROPERTY
W
SciTegic.value.DoubleValue
-62.510

@<SCITEGIC>MOL_PROPERTY
W(PB)
SciTegic.value.DoubleValue
-64.777

@<SCITEGIC>MOL_PROPERTY
W(SA)
SciTegic.value.DoubleValue
2.267

@<SCITEGIC>MOL_PROPERTY
Valence
SciTegic.value.DoubleValue
9.029

@<SCITEGIC>MOL_PROPERTY
Coulomb
SciTegic.value.DoubleValue
1.667

@<SCITEGIC>MOL_PROPERTY
VdW
SciTegic.value.DoubleValue
0.540

@<SCITEGIC>MOL_PROPERTY
VdW6
SciTegic.value.DoubleValue
-8.825

@<SCITEGIC>MOL_PROPERTY
VdW12
SciTegic.value.DoubleValue
9.365

@<SCITEGIC>MOL_PROPERTY
Bond
SciTegic.value.DoubleValue
0.186

@<SCITEGIC>MOL_PROPERTY
Angle
SciTegic.value.DoubleValue
3.195

@<SCITEGIC>MOL_PROPERTY
Pdih
SciTegic.value.DoubleValue
5.642

@<SCITEGIC>MOL_PROPERTY
Idih
SciTegic.value.DoubleValue
0.007

@<SCITEGIC>MOL_PROPERTY
Tether
SciTegic.value.DoubleValue
0.000

@<TRIPOS>MOLECULE
guest-s21_confgen4.mol2 : confsearch ligand conformer 215
          22          21           1
SMALL
USER_CHARGES
 
@<TRIPOS>ATOM
       1    C1      22.280229   17.331347   22.890274 C.2        1 MOL1         0.6145
       2    O1      22.830421   18.341961   23.281058 O.co2      1 MOL1        -0.6735
       3    O2      22.775514   16.563535   22.088735 O.co2      1 MOL1        -0.6735
       4    C2      20.905344   16.989989   23.458016 C.3        1 MOL1        -0.1985
       5    H1      20.729760   17.605272   24.347569 H          1 MOL1         0.0740
       6    H2      20.945368   15.950700   23.804425 H          1 MOL1         0.0740
       7    C3      19.741063   17.146956   22.441671 C.3        1 MOL1        -0.1882
       8    H3      19.912236   16.457568   21.603357 H          1 MOL1         0.0742
       9    H4      18.803271   16.827168   22.915602 H          1 MOL1         0.0742
      10    C4      19.565062   18.579019   21.878685 C.3        1 MOL1        -0.1880
      11    H5      18.784055   18.546157   21.108659 H          1 MOL1         0.0742
      12    H6      20.487152   18.894123   21.371357 H          1 MOL1         0.0742
      13    C5      19.183202   19.622554   22.956953 C.3        1 MOL1        -0.1880
      14    H7      18.272384   19.301186   23.480046 H          1 MOL1         0.0742
      15    H8      19.978481   19.670854   23.712024 H          1 MOL1         0.0742
      16    C6      18.979230   21.046429   22.388645 C.3        1 MOL1        -0.1856
      17    H9      19.883604   21.364154   21.851491 H          1 MOL1         0.0742
      18    H10     18.855889   21.744909   23.227745 H          1 MOL1         0.0742
      19    C7      17.751453   21.167602   21.459831 C.3        1 MOL1        -0.2871
      20    H11     17.881271   20.579243   20.543136 H          1 MOL1         0.0754
      21    H12     17.597012   22.213108   21.163245 H          1 MOL1         0.0754
      22    H13     16.840500   20.821993   21.965614 H          1 MOL1         0.0754
@<TRIPOS>BOND
    1     1     2    1
    2     1     3    2
    3     1     4    1
    4     4     5    1
    5     4     6    1
    6     4     7    1
    7     7     8    1
    8     7     9    1
    9     7    10    1
   10    10    11    1
   11    10    12    1
   12    10    13    1
   13    13    14    1
   14    13    15    1
   15    13    16    1
   16    16    17    1
   17    16    18    1
   18    16    19    1
   19    19    20    1
   20    19    21    1
   21    19    22    1
@<TRIPOS>SUBSTRUCTURE
       1 MOL1            1 RESIDUE      1      MOL     
@<SCITEGIC>MOL_PROPERTY
VConf Rank
SciTegic.value.IntegerValue
215

@<SCITEGIC>MOL_PROPERTY
Conf_Id
SciTegic.value.IntegerValue
93

@<SCITEGIC>MOL_PROPERTY
Delta U+W
SciTegic.value.DoubleValue
1.836

@<SCITEGIC>MOL_PROPERTY
U+W
SciTegic.value.DoubleValue
-51.323

@<SCITEGIC>MOL_PROPERTY
Grad RMS
SciTegic.value.DoubleValue
0.000000

@<SCITEGIC>MOL_PROPERTY
U
SciTegic.value.DoubleValue
10.427

@<SCITEGIC>MOL_PROPERTY
W
SciTegic.value.DoubleValue
-61.751

@<SCITEGIC>MOL_PROPERTY
W(PB)
SciTegic.value.DoubleValue
-63.980

@<SCITEGIC>MOL_PROPERTY
W(SA)
SciTegic.value.DoubleValue
2.230

@<SCITEGIC>MOL_PROPERTY
Valence
SciTegic.value.DoubleValue
8.446

@<SCITEGIC>MOL_PROPERTY
Coulomb
SciTegic.value.DoubleValue
1.306

@<SCITEGIC>MOL_PROPERTY
VdW
SciTegic.value.DoubleValue
0.676

@<SCITEGIC>MOL_PROPERTY
VdW6
SciTegic.value.DoubleValue
-8.928

@<SCITEGIC>MOL_PROPERTY
VdW12
SciTegic.value.DoubleValue
9.604

@<SCITEGIC>MOL_PROPERTY
Bond
SciTegic.value.DoubleValue
0.209

@<SCITEGIC>MOL_PROPERTY
Angle
SciTegic.value.DoubleValue
3.066

@<SCITEGIC>MOL_PROPERTY
Pdih
SciTegic.value.DoubleValue
5.170

@<SCITEGIC>MOL_PROPERTY
Idih
SciTegic.value.DoubleValue
0.001

@<SCITEGIC>MOL_PROPERTY
Tether
SciTegic.value.DoubleValue
0.000

@<TRIPOS>MOLECULE
guest-s21_confgen4.mol2 : confsearch ligand conformer 216
          22          21           1
SMALL
USER_CHARGES
 
@<TRIPOS>ATOM
       1    C1      22.665166   18.285172   22.812809 C.2        1 MOL1         0.6145
       2    O1      23.461915   18.825237   23.554986 O.co2      1 MOL1        -0.6735
       3    O2      22.793236   18.243754   21.605064 O.co2      1 MOL1        -0.6735
       4    C2      21.454415   17.596355   23.436328 C.3        1 MOL1        -0.1985
       5    H1      21.826378   16.946929   24.237335 H          1 MOL1         0.0740
       6    H2      21.002066   16.935630   22.688309 H          1 MOL1         0.0740
       7    C3      20.396841   18.573916   24.018619 C.3        1 MOL1        -0.1882
       8    H3      19.594133   17.994784   24.494642 H          1 MOL1         0.0742
       9    H4      20.866671   19.162751   24.818531 H          1 MOL1         0.0742
      10    C4      19.778780   19.546519   22.983836 C.3        1 MOL1        -0.1880
      11    H5      20.571215   20.155561   22.527721 H          1 MOL1         0.0742
      12    H6      19.124760   20.243290   23.523060 H          1 MOL1         0.0742
      13    C5      18.969006   18.832508   21.873928 C.3        1 MOL1        -0.1880
      14    H7      19.632226   18.155244   21.320404 H          1 MOL1         0.0742
      15    H8      18.188019   18.206849   22.326812 H          1 MOL1         0.0742
      16    C6      18.328098   19.806750   20.858012 C.3        1 MOL1        -0.1856
      17    H9      17.899972   19.221522   20.032548 H          1 MOL1         0.0742
      18    H10     19.105488   20.444525   20.414968 H          1 MOL1         0.0742
      19    C7      17.216201   20.687646   21.468351 C.3        1 MOL1        -0.2871
      20    H11     17.618296   21.380873   22.217421 H          1 MOL1         0.0754
      21    H12     16.444987   20.070827   21.947791 H          1 MOL1         0.0754
      22    H13     16.731312   21.288167   20.687866 H          1 MOL1         0.0754
@<TRIPOS>BOND
    1     1     2    1
    2     1     3    2
    3     1     4    1
    4     4     5    1
    5     4     6    1
    6     4     7    1
    7     7     8    1
    8     7     9    1
    9     7    10    1
   10    10    11    1
   11    10    12    1
   12    10    13    1
   13    13    14    1
   14    13    15    1
   15    13    16    1
   16    16    17    1
   17    16    18    1
   18    16    19    1
   19    19    20    1
   20    19    21    1
   21    19    22    1
@<TRIPOS>SUBSTRUCTURE
       1 MOL1            1 RESIDUE      1      MOL     
@<SCITEGIC>MOL_PROPERTY
VConf Rank
SciTegic.value.IntegerValue
216

@<SCITEGIC>MOL_PROPERTY
Conf_Id
SciTegic.value.IntegerValue
70

@<SCITEGIC>MOL_PROPERTY
Delta U+W
SciTegic.value.DoubleValue
1.803

@<SCITEGIC>MOL_PROPERTY
U+W
SciTegic.value.DoubleValue
-51.356

@<SCITEGIC>MOL_PROPERTY
Grad RMS
SciTegic.value.DoubleValue
0.000000

@<SCITEGIC>MOL_PROPERTY
U
SciTegic.value.DoubleValue
10.428

@<SCITEGIC>MOL_PROPERTY
W
SciTegic.value.DoubleValue
-61.784

@<SCITEGIC>MOL_PROPERTY
W(PB)
SciTegic.value.DoubleValue
-64.014

@<SCITEGIC>MOL_PROPERTY
W(SA)
SciTegic.value.DoubleValue
2.230

@<SCITEGIC>MOL_PROPERTY
Valence
SciTegic.value.DoubleValue
8.445

@<SCITEGIC>MOL_PROPERTY
Coulomb
SciTegic.value.DoubleValue
1.306

@<SCITEGIC>MOL_PROPERTY
VdW
SciTegic.value.DoubleValue
0.676

@<SCITEGIC>MOL_PROPERTY
VdW6
SciTegic.value.DoubleValue
-8.929

@<SCITEGIC>MOL_PROPERTY
VdW12
SciTegic.value.DoubleValue
9.605

@<SCITEGIC>MOL_PROPERTY
Bond
SciTegic.value.DoubleValue
0.209

@<SCITEGIC>MOL_PROPERTY
Angle
SciTegic.value.DoubleValue
3.066

@<SCITEGIC>MOL_PROPERTY
Pdih
SciTegic.value.DoubleValue
5.170

@<SCITEGIC>MOL_PROPERTY
Idih
SciTegic.value.DoubleValue
0.001

@<SCITEGIC>MOL_PROPERTY
Tether
SciTegic.value.DoubleValue
0.000

@<TRIPOS>MOLECULE
guest-s21_confgen4.mol2 : confsearch ligand conformer 217
          22          21           1
SMALL
USER_CHARGES
 
@<TRIPOS>ATOM
       1    C1      18.313908   21.925135   21.515184 C.2        1 MOL1         0.6145
       2    O1      17.165131   21.827356   21.899454 O.co2      1 MOL1        -0.6735
       3    O2      18.619628   22.163468   20.363398 O.co2      1 MOL1        -0.6735
       4    C2      19.431721   21.760072   22.541023 C.3        1 MOL1        -0.1985
       5    H1      19.150654   22.338522   23.428961 H          1 MOL1         0.0740
       6    H2      20.344736   22.217110   22.140572 H          1 MOL1         0.0740
       7    C3      19.702013   20.287745   22.946210 C.3        1 MOL1        -0.1882
       8    H3      20.421832   20.272360   23.775601 H          1 MOL1         0.0742
       9    H4      18.770650   19.846688   23.325238 H          1 MOL1         0.0742
      10    C4      20.255600   19.443308   21.773593 C.3        1 MOL1        -0.1880
      11    H5      21.136002   19.949055   21.354125 H          1 MOL1         0.0742
      12    H6      19.512809   19.394721   20.965381 H          1 MOL1         0.0742
      13    C5      20.663015   18.008897   22.185909 C.3        1 MOL1        -0.1880
      14    H7      21.155000   17.527356   21.329778 H          1 MOL1         0.0742
      15    H8      21.411569   18.054881   22.988664 H          1 MOL1         0.0742
      16    C6      19.470010   17.135323   22.635106 C.3        1 MOL1        -0.1856
      17    H9      18.697891   17.132499   21.853381 H          1 MOL1         0.0742
      18    H10     19.010297   17.558085   23.538043 H          1 MOL1         0.0742
      19    C7      19.908624   15.686171   22.927184 C.3        1 MOL1        -0.2871
      20    H11     20.339177   15.217663   22.032491 H          1 MOL1         0.0754
      21    H12     19.051480   15.079864   23.247737 H          1 MOL1         0.0754
      22    H13     20.661703   15.657515   23.725573 H          1 MOL1         0.0754
@<TRIPOS>BOND
    1     1     2    1
    2     1     3    2
    3     1     4    1
    4     4     5    1
    5     4     6    1
    6     4     7    1
    7     7     8    1
    8     7     9    1
    9     7    10    1
   10    10    11    1
   11    10    12    1
   12    10    13    1
   13    13    14    1
   14    13    15    1
   15    13    16    1
   16    16    17    1
   17    16    18    1
   18    16    19    1
   19    19    20    1
   20    19    21    1
   21    19    22    1
@<TRIPOS>SUBSTRUCTURE
       1 MOL1            1 RESIDUE      1      MOL     
@<SCITEGIC>MOL_PROPERTY
VConf Rank
SciTegic.value.IntegerValue
217

@<SCITEGIC>MOL_PROPERTY
Conf_Id
SciTegic.value.IntegerValue
85

@<SCITEGIC>MOL_PROPERTY
Delta U+W
SciTegic.value.DoubleValue
0.707

@<SCITEGIC>MOL_PROPERTY
U+W
SciTegic.value.DoubleValue
-52.452

@<SCITEGIC>MOL_PROPERTY
Grad RMS
SciTegic.value.DoubleValue
0.000000

@<SCITEGIC>MOL_PROPERTY
U
SciTegic.value.DoubleValue
8.925

@<SCITEGIC>MOL_PROPERTY
W
SciTegic.value.DoubleValue
-61.378

@<SCITEGIC>MOL_PROPERTY
W(PB)
SciTegic.value.DoubleValue
-63.661

@<SCITEGIC>MOL_PROPERTY
W(SA)
SciTegic.value.DoubleValue
2.283

@<SCITEGIC>MOL_PROPERTY
Valence
SciTegic.value.DoubleValue
7.881

@<SCITEGIC>MOL_PROPERTY
Coulomb
SciTegic.value.DoubleValue
0.349

@<SCITEGIC>MOL_PROPERTY
VdW
SciTegic.value.DoubleValue
0.695

@<SCITEGIC>MOL_PROPERTY
VdW6
SciTegic.value.DoubleValue
-8.049

@<SCITEGIC>MOL_PROPERTY
VdW12
SciTegic.value.DoubleValue
8.743

@<SCITEGIC>MOL_PROPERTY
Bond
SciTegic.value.DoubleValue
0.156

@<SCITEGIC>MOL_PROPERTY
Angle
SciTegic.value.DoubleValue
2.660

@<SCITEGIC>MOL_PROPERTY
Pdih
SciTegic.value.DoubleValue
5.064

@<SCITEGIC>MOL_PROPERTY
Idih
SciTegic.value.DoubleValue
0.001

@<SCITEGIC>MOL_PROPERTY
Tether
SciTegic.value.DoubleValue
0.000

@<TRIPOS>MOLECULE
guest-s21_confgen4.mol2 : confsearch ligand conformer 218
          22          21           1
SMALL
USER_CHARGES
 
@<TRIPOS>ATOM
       1    C1      21.081130   19.938742   19.462156 C.2        1 MOL1         0.6145
       2    O1      21.397636   21.111783   19.489352 O.co2      1 MOL1        -0.6735
       3    O2      21.787282   19.062601   19.003136 O.co2      1 MOL1        -0.6735
       4    C2      19.713100   19.545471   20.012818 C.3        1 MOL1        -0.1985
       5    H1      19.248913   18.871323   19.283403 H          1 MOL1         0.0740
       6    H2      19.083492   20.442155   20.061858 H          1 MOL1         0.0740
       7    C3      19.764479   18.850902   21.398684 C.3        1 MOL1        -0.1882
       8    H3      18.762062   18.470431   21.631724 H          1 MOL1         0.0742
       9    H4      20.435314   17.982227   21.347098 H          1 MOL1         0.0742
      10    C4      20.223990   19.804690   22.525724 C.3        1 MOL1        -0.1880
      11    H5      19.500408   20.624971   22.627066 H          1 MOL1         0.0742
      12    H6      21.176628   20.270235   22.238338 H          1 MOL1         0.0742
      13    C5      20.419737   19.117431   23.900453 C.3        1 MOL1        -0.1880
      14    H7      21.209324   18.356651   23.831931 H          1 MOL1         0.0742
      15    H8      20.797888   19.877260   24.597969 H          1 MOL1         0.0742
      16    C6      19.133899   18.503349   24.508257 C.3        1 MOL1        -0.1856
      17    H9      18.246786   19.042023   24.147602 H          1 MOL1         0.0742
      18    H10     19.156747   18.647762   25.597257 H          1 MOL1         0.0742
      19    C7      18.991839   16.990105   24.230870 C.3        1 MOL1        -0.2871
      20    H11     18.947434   16.773917   23.157467 H          1 MOL1         0.0754
      21    H12     18.073967   16.600311   24.689553 H          1 MOL1         0.0754
      22    H13     19.839669   16.435006   24.652930 H          1 MOL1         0.0754
@<TRIPOS>BOND
    1     1     2    1
    2     1     3    2
    3     1     4    1
    4     4     5    1
    5     4     6    1
    6     4     7    1
    7     7     8    1
    8     7     9    1
    9     7    10    1
   10    10    11    1
   11    10    12    1
   12    10    13    1
   13    13    14    1
   14    13    15    1
   15    13    16    1
   16    16    17    1
   17    16    18    1
   18    16    19    1
   19    19    20    1
   20    19    21    1
   21    19    22    1
@<TRIPOS>SUBSTRUCTURE
       1 MOL1            1 RESIDUE      1      MOL     
@<SCITEGIC>MOL_PROPERTY
VConf Rank
SciTegic.value.IntegerValue
218

@<SCITEGIC>MOL_PROPERTY
Conf_Id
SciTegic.value.IntegerValue
82

@<SCITEGIC>MOL_PROPERTY
Delta U+W
SciTegic.value.DoubleValue
3.438

@<SCITEGIC>MOL_PROPERTY
U+W
SciTegic.value.DoubleValue
-49.721

@<SCITEGIC>MOL_PROPERTY
Grad RMS
SciTegic.value.DoubleValue
0.000000

@<SCITEGIC>MOL_PROPERTY
U
SciTegic.value.DoubleValue
11.773

@<SCITEGIC>MOL_PROPERTY
W
SciTegic.value.DoubleValue
-61.495

@<SCITEGIC>MOL_PROPERTY
W(PB)
SciTegic.value.DoubleValue
-63.749

@<SCITEGIC>MOL_PROPERTY
W(SA)
SciTegic.value.DoubleValue
2.254

@<SCITEGIC>MOL_PROPERTY
Valence
SciTegic.value.DoubleValue
10.419

@<SCITEGIC>MOL_PROPERTY
Coulomb
SciTegic.value.DoubleValue
0.565

@<SCITEGIC>MOL_PROPERTY
VdW
SciTegic.value.DoubleValue
0.789

@<SCITEGIC>MOL_PROPERTY
VdW6
SciTegic.value.DoubleValue
-8.847

@<SCITEGIC>MOL_PROPERTY
VdW12
SciTegic.value.DoubleValue
9.636

@<SCITEGIC>MOL_PROPERTY
Bond
SciTegic.value.DoubleValue
0.200

@<SCITEGIC>MOL_PROPERTY
Angle
SciTegic.value.DoubleValue
3.187

@<SCITEGIC>MOL_PROPERTY
Pdih
SciTegic.value.DoubleValue
7.032

@<SCITEGIC>MOL_PROPERTY
Idih
SciTegic.value.DoubleValue
0.001

@<SCITEGIC>MOL_PROPERTY
Tether
SciTegic.value.DoubleValue
0.000

@<TRIPOS>MOLECULE
guest-s21_confgen4.mol2 : confsearch ligand conformer 219
          22          21           1
SMALL
USER_CHARGES
 
@<TRIPOS>ATOM
       1    C1      17.721881   21.399285   22.178273 C.2        1 MOL1         0.6145
       2    O1      18.304898   22.441465   22.403941 O.co2      1 MOL1        -0.6735
       3    O2      16.937276   21.252982   21.261797 O.co2      1 MOL1        -0.6735
       4    C2      17.972562   20.218078   23.111712 C.3        1 MOL1        -0.1985
       5    H1      17.151319   19.500158   22.997662 H          1 MOL1         0.0740
       6    H2      17.922135   20.597291   24.139158 H          1 MOL1         0.0740
       7    C3      19.335509   19.512476   22.887676 C.3        1 MOL1        -0.1882
       8    H3      20.145326   20.251743   22.958101 H          1 MOL1         0.0742
       9    H4      19.487722   18.789636   23.698995 H          1 MOL1         0.0742
      10    C4      19.409419   18.778568   21.528634 C.3        1 MOL1        -0.1880
      11    H5      19.146958   19.480109   20.725021 H          1 MOL1         0.0742
      12    H6      18.651351   17.984029   21.501406 H          1 MOL1         0.0742
      13    C5      20.799684   18.175619   21.205922 C.3        1 MOL1        -0.1880
      14    H7      20.742805   17.735257   20.201077 H          1 MOL1         0.0742
      15    H8      21.550294   18.974999   21.138814 H          1 MOL1         0.0742
      16    C6      21.273818   17.075081   22.187710 C.3        1 MOL1        -0.1856
      17    H9      21.817955   16.308231   21.619244 H          1 MOL1         0.0742
      18    H10     20.409522   16.566311   22.636440 H          1 MOL1         0.0742
      19    C7      22.214766   17.607801   23.291274 C.3        1 MOL1        -0.2871
      20    H11     23.117246   18.053124   22.852750 H          1 MOL1         0.0754
      21    H12     22.531216   16.791222   23.952997 H          1 MOL1         0.0754
      22    H13     21.728308   18.370418   23.909883 H          1 MOL1         0.0754
@<TRIPOS>BOND
    1     1     2    1
    2     1     3    2
    3     1     4    1
    4     4     5    1
    5     4     6    1
    6     4     7    1
    7     7     8    1
    8     7     9    1
    9     7    10    1
   10    10    11    1
   11    10    12    1
   12    10    13    1
   13    13    14    1
   14    13    15    1
   15    13    16    1
   16    16    17    1
   17    16    18    1
   18    16    19    1
   19    19    20    1
   20    19    21    1
   21    19    22    1
@<TRIPOS>SUBSTRUCTURE
       1 MOL1            1 RESIDUE      1      MOL     
@<SCITEGIC>MOL_PROPERTY
VConf Rank
SciTegic.value.IntegerValue
219

@<SCITEGIC>MOL_PROPERTY
Conf_Id
SciTegic.value.IntegerValue
94

@<SCITEGIC>MOL_PROPERTY
Delta U+W
SciTegic.value.DoubleValue
3.471

@<SCITEGIC>MOL_PROPERTY
U+W
SciTegic.value.DoubleValue
-49.688

@<SCITEGIC>MOL_PROPERTY
Grad RMS
SciTegic.value.DoubleValue
0.000000

@<SCITEGIC>MOL_PROPERTY
U
SciTegic.value.DoubleValue
11.773

@<SCITEGIC>MOL_PROPERTY
W
SciTegic.value.DoubleValue
-61.461

@<SCITEGIC>MOL_PROPERTY
W(PB)
SciTegic.value.DoubleValue
-63.710

@<SCITEGIC>MOL_PROPERTY
W(SA)
SciTegic.value.DoubleValue
2.248

@<SCITEGIC>MOL_PROPERTY
Valence
SciTegic.value.DoubleValue
10.419

@<SCITEGIC>MOL_PROPERTY
Coulomb
SciTegic.value.DoubleValue
0.566

@<SCITEGIC>MOL_PROPERTY
VdW
SciTegic.value.DoubleValue
0.789

@<SCITEGIC>MOL_PROPERTY
VdW6
SciTegic.value.DoubleValue
-8.847

@<SCITEGIC>MOL_PROPERTY
VdW12
SciTegic.value.DoubleValue
9.636

@<SCITEGIC>MOL_PROPERTY
Bond
SciTegic.value.DoubleValue
0.200

@<SCITEGIC>MOL_PROPERTY
Angle
SciTegic.value.DoubleValue
3.187

@<SCITEGIC>MOL_PROPERTY
Pdih
SciTegic.value.DoubleValue
7.032

@<SCITEGIC>MOL_PROPERTY
Idih
SciTegic.value.DoubleValue
0.001

@<SCITEGIC>MOL_PROPERTY
Tether
SciTegic.value.DoubleValue
0.000

@<TRIPOS>MOLECULE
guest-s21_confgen4.mol2 : confsearch ligand conformer 220
          22          21           1
SMALL
USER_CHARGES
 
@<TRIPOS>ATOM
       1    C1      20.135029   16.749223   20.021224 C.2        1 MOL1         0.6145
       2    O1      19.738503   15.602583   19.952794 O.co2      1 MOL1        -0.6735
       3    O2      21.143646   17.145991   19.471823 O.co2      1 MOL1        -0.6735
       4    C2      19.333122   17.739349   20.858201 C.3        1 MOL1        -0.1985
       5    H1      18.274753   17.459580   20.796434 H          1 MOL1         0.0740
       6    H2      19.436514   18.727629   20.395981 H          1 MOL1         0.0740
       7    C3      19.789819   17.781118   22.339463 C.3        1 MOL1        -0.1882
       8    H3      19.752627   16.762369   22.749177 H          1 MOL1         0.0742
       9    H4      20.842060   18.090876   22.391088 H          1 MOL1         0.0742
      10    C4      18.918910   18.703346   23.229085 C.3        1 MOL1        -0.1880
      11    H5      19.274069   18.635235   24.265761 H          1 MOL1         0.0742
      12    H6      17.891049   18.316176   23.241288 H          1 MOL1         0.0742
      13    C5      18.881216   20.193231   22.797821 C.3        1 MOL1        -0.1880
      14    H7      18.375480   20.278064   21.827107 H          1 MOL1         0.0742
      15    H8      18.253102   20.747292   23.508478 H          1 MOL1         0.0742
      16    C6      20.262123   20.887987   22.706500 C.3        1 MOL1        -0.1856
      17    H9      20.112027   21.922679   22.369167 H          1 MOL1         0.0742
      18    H10     20.878794   20.404150   21.937332 H          1 MOL1         0.0742
      19    C7      21.024364   20.908693   24.049022 C.3        1 MOL1        -0.2871
      20    H11     20.418706   21.374141   24.837368 H          1 MOL1         0.0754
      21    H12     21.955237   21.482381   23.953626 H          1 MOL1         0.0754
      22    H13     21.290013   19.894273   24.372039 H          1 MOL1         0.0754
@<TRIPOS>BOND
    1     1     2    1
    2     1     3    2
    3     1     4    1
    4     4     5    1
    5     4     6    1
    6     4     7    1
    7     7     8    1
    8     7     9    1
    9     7    10    1
   10    10    11    1
   11    10    12    1
   12    10    13    1
   13    13    14    1
   14    13    15    1
   15    13    16    1
   16    16    17    1
   17    16    18    1
   18    16    19    1
   19    19    20    1
   20    19    21    1
   21    19    22    1
@<TRIPOS>SUBSTRUCTURE
       1 MOL1            1 RESIDUE      1      MOL     
@<SCITEGIC>MOL_PROPERTY
VConf Rank
SciTegic.value.IntegerValue
220

@<SCITEGIC>MOL_PROPERTY
Conf_Id
SciTegic.value.IntegerValue
56

@<SCITEGIC>MOL_PROPERTY
Delta U+W
SciTegic.value.DoubleValue
0.853

@<SCITEGIC>MOL_PROPERTY
U+W
SciTegic.value.DoubleValue
-52.307

@<SCITEGIC>MOL_PROPERTY
Grad RMS
SciTegic.value.DoubleValue
0.000000

@<SCITEGIC>MOL_PROPERTY
U
SciTegic.value.DoubleValue
8.874

@<SCITEGIC>MOL_PROPERTY
W
SciTegic.value.DoubleValue
-61.181

@<SCITEGIC>MOL_PROPERTY
W(PB)
SciTegic.value.DoubleValue
-63.413

@<SCITEGIC>MOL_PROPERTY
W(SA)
SciTegic.value.DoubleValue
2.232

@<SCITEGIC>MOL_PROPERTY
Valence
SciTegic.value.DoubleValue
8.479

@<SCITEGIC>MOL_PROPERTY
Coulomb
SciTegic.value.DoubleValue
-0.357

@<SCITEGIC>MOL_PROPERTY
VdW
SciTegic.value.DoubleValue
0.753

@<SCITEGIC>MOL_PROPERTY
VdW6
SciTegic.value.DoubleValue
-9.081

@<SCITEGIC>MOL_PROPERTY
VdW12
SciTegic.value.DoubleValue
9.833

@<SCITEGIC>MOL_PROPERTY
Bond
SciTegic.value.DoubleValue
0.221

@<SCITEGIC>MOL_PROPERTY
Angle
SciTegic.value.DoubleValue
3.208

@<SCITEGIC>MOL_PROPERTY
Pdih
SciTegic.value.DoubleValue
5.050

@<SCITEGIC>MOL_PROPERTY
Idih
SciTegic.value.DoubleValue
0.000

@<SCITEGIC>MOL_PROPERTY
Tether
SciTegic.value.DoubleValue
0.000

@<TRIPOS>MOLECULE
guest-s21_confgen4.mol2 : confsearch ligand conformer 221
          22          21           1
SMALL
USER_CHARGES
 
@<TRIPOS>ATOM
       1    C1      19.559945   21.878176   19.368267 C.2        1 MOL1         0.6145
       2    O1      18.364574   22.021361   19.538526 O.co2      1 MOL1        -0.6735
       3    O2      20.198672   22.530356   18.566636 O.co2      1 MOL1        -0.6735
       4    C2      20.323643   20.835703   20.186522 C.3        1 MOL1        -0.1985
       5    H1      21.125919   21.360882   20.718038 H          1 MOL1         0.0740
       6    H2      20.803226   20.150724   19.477459 H          1 MOL1         0.0740
       7    C3      19.465990   20.028465   21.197070 C.3        1 MOL1        -0.1882
       8    H3      18.983451   20.721093   21.900570 H          1 MOL1         0.0742
       9    H4      18.660579   19.509687   20.658859 H          1 MOL1         0.0742
      10    C4      20.314124   19.001503   21.978435 C.3        1 MOL1        -0.1880
      11    H5      21.118591   19.522450   22.515628 H          1 MOL1         0.0742
      12    H6      20.795609   18.310302   21.273067 H          1 MOL1         0.0742
      13    C5      19.459066   18.199583   22.982978 C.3        1 MOL1        -0.1880
      14    H7      18.977312   18.890388   23.688548 H          1 MOL1         0.0742
      15    H8      18.654454   17.678417   22.446218 H          1 MOL1         0.0742
      16    C6      20.305993   17.173180   23.764203 C.3        1 MOL1        -0.1856
      17    H9      21.110768   17.691131   24.304146 H          1 MOL1         0.0742
      18    H10     20.787968   16.479130   23.061728 H          1 MOL1         0.0742
      19    C7      19.448455   16.374438   24.766189 C.3        1 MOL1        -0.2871
      20    H11     18.979041   17.041782   25.500840 H          1 MOL1         0.0754
      21    H12     20.066155   15.649873   25.312581 H          1 MOL1         0.0754
      22    H13     18.653874   15.820651   24.249113 H          1 MOL1         0.0754
@<TRIPOS>BOND
    1     1     2    1
    2     1     3    2
    3     1     4    1
    4     4     5    1
    5     4     6    1
    6     4     7    1
    7     7     8    1
    8     7     9    1
    9     7    10    1
   10    10    11    1
   11    10    12    1
   12    10    13    1
   13    13    14    1
   14    13    15    1
   15    13    16    1
   16    16    17    1
   17    16    18    1
   18    16    19    1
   19    19    20    1
   20    19    21    1
   21    19    22    1
@<TRIPOS>SUBSTRUCTURE
       1 MOL1            1 RESIDUE      1      MOL     
@<SCITEGIC>MOL_PROPERTY
VConf Rank
SciTegic.value.IntegerValue
221

@<SCITEGIC>MOL_PROPERTY
Conf_Id
SciTegic.value.IntegerValue
0

@<SCITEGIC>MOL_PROPERTY
Delta U+W
SciTegic.value.DoubleValue
0.000

@<SCITEGIC>MOL_PROPERTY
U+W
SciTegic.value.DoubleValue
-53.159

@<SCITEGIC>MOL_PROPERTY
Grad RMS
SciTegic.value.DoubleValue
0.000000

@<SCITEGIC>MOL_PROPERTY
U
SciTegic.value.DoubleValue
6.763

@<SCITEGIC>MOL_PROPERTY
W
SciTegic.value.DoubleValue
-59.922

@<SCITEGIC>MOL_PROPERTY
W(PB)
SciTegic.value.DoubleValue
-62.256

@<SCITEGIC>MOL_PROPERTY
W(SA)
SciTegic.value.DoubleValue
2.334

@<SCITEGIC>MOL_PROPERTY
Valence
SciTegic.value.DoubleValue
7.600

@<SCITEGIC>MOL_PROPERTY
Coulomb
SciTegic.value.DoubleValue
-2.139

@<SCITEGIC>MOL_PROPERTY
VdW
SciTegic.value.DoubleValue
1.302

@<SCITEGIC>MOL_PROPERTY
VdW6
SciTegic.value.DoubleValue
-6.786

@<SCITEGIC>MOL_PROPERTY
VdW12
SciTegic.value.DoubleValue
8.088

@<SCITEGIC>MOL_PROPERTY
Bond
SciTegic.value.DoubleValue
0.134

@<SCITEGIC>MOL_PROPERTY
Angle
SciTegic.value.DoubleValue
2.720

@<SCITEGIC>MOL_PROPERTY
Pdih
SciTegic.value.DoubleValue
4.746

@<SCITEGIC>MOL_PROPERTY
Idih
SciTegic.value.DoubleValue
0.000

@<SCITEGIC>MOL_PROPERTY
Tether
SciTegic.value.DoubleValue
0.000

@<TRIPOS>MOLECULE
guest-s21_confgen4.mol2 : confsearch ligand conformer 222
          22          21           1
SMALL
USER_CHARGES
 
@<TRIPOS>ATOM
       1    C1      16.627964   18.964095   19.690912 C.2        1 MOL1         0.6145
       2    O1      16.520193   17.954975   19.022710 O.co2      1 MOL1        -0.6735
       3    O2      16.288978   20.065621   19.305997 O.co2      1 MOL1        -0.6735
       4    C2      17.243246   18.844964   21.080678 C.3        1 MOL1        -0.1985
       5    H1      16.972418   17.864391   21.490301 H          1 MOL1         0.0740
       6    H2      16.781557   19.603771   21.723887 H          1 MOL1         0.0740
       7    C3      18.782456   19.014780   21.073832 C.3        1 MOL1        -0.1882
       8    H3      19.228292   18.256305   20.415411 H          1 MOL1         0.0742
       9    H4      19.037437   19.995631   20.648991 H          1 MOL1         0.0742
      10    C4      19.380856   18.890035   22.491660 C.3        1 MOL1        -0.1880
      11    H5      19.123106   17.908991   22.913906 H          1 MOL1         0.0742
      12    H6      18.932167   19.648744   23.147564 H          1 MOL1         0.0742
      13    C5      20.915256   19.059773   22.481716 C.3        1 MOL1        -0.1880
      14    H7      21.364327   18.301241   21.825903 H          1 MOL1         0.0742
      15    H8      21.173424   20.040705   22.059521 H          1 MOL1         0.0742
      16    C6      21.514071   18.935220   23.898394 C.3        1 MOL1        -0.1856
      17    H9      21.259598   17.954323   24.323317 H          1 MOL1         0.0742
      18    H10     21.068685   19.693780   24.556949 H          1 MOL1         0.0742
      19    C7      23.046457   19.105309   23.884198 C.3        1 MOL1        -0.2871
      20    H11     23.328586   20.091514   23.492776 H          1 MOL1         0.0754
      21    H12     23.520920   18.339016   23.257231 H          1 MOL1         0.0754
      22    H13     23.455284   19.013797   24.898879 H          1 MOL1         0.0754
@<TRIPOS>BOND
    1     1     2    1
    2     1     3    2
    3     1     4    1
    4     4     5    1
    5     4     6    1
    6     4     7    1
    7     7     8    1
    8     7     9    1
    9     7    10    1
   10    10    11    1
   11    10    12    1
   12    10    13    1
   13    13    14    1
   14    13    15    1
   15    13    16    1
   16    16    17    1
   17    16    18    1
   18    16    19    1
   19    19    20    1
   20    19    21    1
   21    19    22    1
@<TRIPOS>SUBSTRUCTURE
       1 MOL1            1 RESIDUE      1      MOL     
@<SCITEGIC>MOL_PROPERTY
VConf Rank
SciTegic.value.IntegerValue
222

@<SCITEGIC>MOL_PROPERTY
Conf_Id
SciTegic.value.IntegerValue
10

@<SCITEGIC>MOL_PROPERTY
Delta U+W
SciTegic.value.DoubleValue
-1.291

@<SCITEGIC>MOL_PROPERTY
U+W
SciTegic.value.DoubleValue
-54.451

@<SCITEGIC>MOL_PROPERTY
Grad RMS
SciTegic.value.DoubleValue
0.000000

@<SCITEGIC>MOL_PROPERTY
U
SciTegic.value.DoubleValue
5.779

@<SCITEGIC>MOL_PROPERTY
W
SciTegic.value.DoubleValue
-60.230

@<SCITEGIC>MOL_PROPERTY
W(PB)
SciTegic.value.DoubleValue
-62.557

@<SCITEGIC>MOL_PROPERTY
W(SA)
SciTegic.value.DoubleValue
2.328

@<SCITEGIC>MOL_PROPERTY
Valence
SciTegic.value.DoubleValue
7.101

@<SCITEGIC>MOL_PROPERTY
Coulomb
SciTegic.value.DoubleValue
-2.079

@<SCITEGIC>MOL_PROPERTY
VdW
SciTegic.value.DoubleValue
0.757

@<SCITEGIC>MOL_PROPERTY
VdW6
SciTegic.value.DoubleValue
-6.496

@<SCITEGIC>MOL_PROPERTY
VdW12
SciTegic.value.DoubleValue
7.253

@<SCITEGIC>MOL_PROPERTY
Bond
SciTegic.value.DoubleValue
0.100

@<SCITEGIC>MOL_PROPERTY
Angle
SciTegic.value.DoubleValue
2.262

@<SCITEGIC>MOL_PROPERTY
Pdih
SciTegic.value.DoubleValue
4.738

@<SCITEGIC>MOL_PROPERTY
Idih
SciTegic.value.DoubleValue
0.001

@<SCITEGIC>MOL_PROPERTY
Tether
SciTegic.value.DoubleValue
0.000

@<TRIPOS>MOLECULE
guest-s21_confgen4.mol2 : confsearch ligand conformer 223
          22          21           1
SMALL
USER_CHARGES
 
@<TRIPOS>ATOM
       1    C1      20.159971   16.247814   19.417152 C.2        1 MOL1         0.6145
       2    O1      20.998060   15.402549   19.661253 O.co2      1 MOL1        -0.6735
       3    O2      19.189059   16.049549   18.713961 O.co2      1 MOL1        -0.6735
       4    C2      20.324600   17.627307   20.044931 C.3        1 MOL1        -0.1985
       5    H1      19.907526   18.368686   19.352795 H          1 MOL1         0.0740
       6    H2      21.397670   17.835043   20.134506 H          1 MOL1         0.0740
       7    C3      19.640222   17.744151   21.429173 C.3        1 MOL1        -0.1882
       8    H3      18.569542   17.520192   21.324296 H          1 MOL1         0.0742
       9    H4      20.059743   16.987384   22.106562 H          1 MOL1         0.0742
      10    C4      19.821308   19.149312   22.043238 C.3        1 MOL1        -0.1880
      11    H5      19.399217   19.903438   21.365015 H          1 MOL1         0.0742
      12    H6      20.893526   19.365527   22.136868 H          1 MOL1         0.0742
      13    C5      19.139558   19.259656   23.426459 C.3        1 MOL1        -0.1880
      14    H7      18.083819   18.971968   23.328555 H          1 MOL1         0.0742
      15    H8      19.594587   18.541171   24.121917 H          1 MOL1         0.0742
      16    C6      19.206824   20.680337   24.033458 C.3        1 MOL1        -0.1856
      17    H9      18.602636   20.700517   24.950947 H          1 MOL1         0.0742
      18    H10     18.746847   21.400997   23.343255 H          1 MOL1         0.0742
      19    C7      20.643426   21.132004   24.374605 C.3        1 MOL1        -0.2871
      20    H11     20.629339   22.105139   24.882277 H          1 MOL1         0.0754
      21    H12     21.255481   21.238399   23.470298 H          1 MOL1         0.0754
      22    H13     21.134463   20.410507   25.040532 H          1 MOL1         0.0754
@<TRIPOS>BOND
    1     1     2    1
    2     1     3    2
    3     1     4    1
    4     4     5    1
    5     4     6    1
    6     4     7    1
    7     7     8    1
    8     7     9    1
    9     7    10    1
   10    10    11    1
   11    10    12    1
   12    10    13    1
   13    13    14    1
   14    13    15    1
   15    13    16    1
   16    16    17    1
   17    16    18    1
   18    16    19    1
   19    19    20    1
   20    19    21    1
   21    19    22    1
@<TRIPOS>SUBSTRUCTURE
       1 MOL1            1 RESIDUE      1      MOL     
@<SCITEGIC>MOL_PROPERTY
VConf Rank
SciTegic.value.IntegerValue
223

@<SCITEGIC>MOL_PROPERTY
Conf_Id
SciTegic.value.IntegerValue
37

@<SCITEGIC>MOL_PROPERTY
Delta U+W
SciTegic.value.DoubleValue
-0.345

@<SCITEGIC>MOL_PROPERTY
U+W
SciTegic.value.DoubleValue
-53.504

@<SCITEGIC>MOL_PROPERTY
Grad RMS
SciTegic.value.DoubleValue
0.000000

@<SCITEGIC>MOL_PROPERTY
U
SciTegic.value.DoubleValue
6.751

@<SCITEGIC>MOL_PROPERTY
W
SciTegic.value.DoubleValue
-60.255

@<SCITEGIC>MOL_PROPERTY
W(PB)
SciTegic.value.DoubleValue
-62.592

@<SCITEGIC>MOL_PROPERTY
W(SA)
SciTegic.value.DoubleValue
2.336

@<SCITEGIC>MOL_PROPERTY
Valence
SciTegic.value.DoubleValue
7.602

@<SCITEGIC>MOL_PROPERTY
Coulomb
SciTegic.value.DoubleValue
-1.744

@<SCITEGIC>MOL_PROPERTY
VdW
SciTegic.value.DoubleValue
0.894

@<SCITEGIC>MOL_PROPERTY
VdW6
SciTegic.value.DoubleValue
-7.110

@<SCITEGIC>MOL_PROPERTY
VdW12
SciTegic.value.DoubleValue
8.004

@<SCITEGIC>MOL_PROPERTY
Bond
SciTegic.value.DoubleValue
0.131

@<SCITEGIC>MOL_PROPERTY
Angle
SciTegic.value.DoubleValue
2.489

@<SCITEGIC>MOL_PROPERTY
Pdih
SciTegic.value.DoubleValue
4.982

@<SCITEGIC>MOL_PROPERTY
Idih
SciTegic.value.DoubleValue
0.001

@<SCITEGIC>MOL_PROPERTY
Tether
SciTegic.value.DoubleValue
0.000

@<TRIPOS>MOLECULE
guest-s21_confgen4.mol2 : confsearch ligand conformer 224
          22          21           1
SMALL
USER_CHARGES
 
@<TRIPOS>ATOM
       1    C1      22.440537   16.176046   22.619174 C.2        1 MOL1         0.6145
       2    O1      22.264183   15.253966   21.847735 O.co2      1 MOL1        -0.6735
       3    O2      22.990150   16.056673   23.696269 O.co2      1 MOL1        -0.6735
       4    C2      21.924367   17.554806   22.223190 C.3        1 MOL1        -0.1985
       5    H1      21.996150   17.645217   21.132626 H          1 MOL1         0.0740
       6    H2      22.595082   18.306948   22.655704 H          1 MOL1         0.0740
       7    C3      20.468336   17.808044   22.685791 C.3        1 MOL1        -0.1882
       8    H3      19.811610   17.039798   22.254447 H          1 MOL1         0.0742
       9    H4      20.411008   17.700408   23.777871 H          1 MOL1         0.0742
      10    C4      19.969596   19.209937   22.273112 C.3        1 MOL1        -0.1880
      11    H5      20.037910   19.309270   21.181951 H          1 MOL1         0.0742
      12    H6      20.626565   19.975810   22.707493 H          1 MOL1         0.0742
      13    C5      18.514486   19.456301   22.733790 C.3        1 MOL1        -0.1880
      14    H7      17.847144   18.722940   22.260744 H          1 MOL1         0.0742
      15    H8      18.448408   19.283920   23.816774 H          1 MOL1         0.0742
      16    C6      18.007949   20.885994   22.432611 C.3        1 MOL1        -0.1856
      17    H9      18.669454   21.622303   22.909655 H          1 MOL1         0.0742
      18    H10     17.018579   21.013630   22.893145 H          1 MOL1         0.0742
      19    C7      17.896044   21.189554   20.922797 C.3        1 MOL1        -0.2871
      20    H11     17.262868   20.447834   20.418740 H          1 MOL1         0.0754
      21    H12     18.880988   21.187395   20.439491 H          1 MOL1         0.0754
      22    H13     17.449812   22.179555   20.762494 H          1 MOL1         0.0754
@<TRIPOS>BOND
    1     1     2    1
    2     1     3    2
    3     1     4    1
    4     4     5    1
    5     4     6    1
    6     4     7    1
    7     7     8    1
    8     7     9    1
    9     7    10    1
   10    10    11    1
   11    10    12    1
   12    10    13    1
   13    13    14    1
   14    13    15    1
   15    13    16    1
   16    16    17    1
   17    16    18    1
   18    16    19    1
   19    19    20    1
   20    19    21    1
   21    19    22    1
@<TRIPOS>SUBSTRUCTURE
       1 MOL1            1 RESIDUE      1      MOL     
@<SCITEGIC>MOL_PROPERTY
VConf Rank
SciTegic.value.IntegerValue
224

@<SCITEGIC>MOL_PROPERTY
Conf_Id
SciTegic.value.IntegerValue
38

@<SCITEGIC>MOL_PROPERTY
Delta U+W
SciTegic.value.DoubleValue
-0.439

@<SCITEGIC>MOL_PROPERTY
U+W
SciTegic.value.DoubleValue
-53.598

@<SCITEGIC>MOL_PROPERTY
Grad RMS
SciTegic.value.DoubleValue
0.000000

@<SCITEGIC>MOL_PROPERTY
U
SciTegic.value.DoubleValue
6.751

@<SCITEGIC>MOL_PROPERTY
W
SciTegic.value.DoubleValue
-60.350

@<SCITEGIC>MOL_PROPERTY
W(PB)
SciTegic.value.DoubleValue
-62.659

@<SCITEGIC>MOL_PROPERTY
W(SA)
SciTegic.value.DoubleValue
2.309

@<SCITEGIC>MOL_PROPERTY
Valence
SciTegic.value.DoubleValue
7.602

@<SCITEGIC>MOL_PROPERTY
Coulomb
SciTegic.value.DoubleValue
-1.744

@<SCITEGIC>MOL_PROPERTY
VdW
SciTegic.value.DoubleValue
0.893

@<SCITEGIC>MOL_PROPERTY
VdW6
SciTegic.value.DoubleValue
-7.110

@<SCITEGIC>MOL_PROPERTY
VdW12
SciTegic.value.DoubleValue
8.004

@<SCITEGIC>MOL_PROPERTY
Bond
SciTegic.value.DoubleValue
0.131

@<SCITEGIC>MOL_PROPERTY
Angle
SciTegic.value.DoubleValue
2.489

@<SCITEGIC>MOL_PROPERTY
Pdih
SciTegic.value.DoubleValue
4.981

@<SCITEGIC>MOL_PROPERTY
Idih
SciTegic.value.DoubleValue
0.001

@<SCITEGIC>MOL_PROPERTY
Tether
SciTegic.value.DoubleValue
0.000

@<TRIPOS>MOLECULE
guest-s21_confgen4.mol2 : confsearch ligand conformer 225
          22          21           1
SMALL
USER_CHARGES
 
@<TRIPOS>ATOM
       1    C1      17.446808   21.606814   20.955420 C.2        1 MOL1         0.6145
       2    O1      17.787712   22.681237   20.501591 O.co2      1 MOL1        -0.6735
       3    O2      16.332546   21.380667   21.384152 O.co2      1 MOL1        -0.6735
       4    C2      18.480775   20.487820   21.010683 C.3        1 MOL1        -0.1985
       5    H1      19.161357   20.611500   20.159844 H          1 MOL1         0.0740
       6    H2      17.951543   19.538955   20.869158 H          1 MOL1         0.0740
       7    C3      19.281421   20.476474   22.339009 C.3        1 MOL1        -0.1882
       8    H3      19.716821   21.473273   22.494780 H          1 MOL1         0.0742
       9    H4      18.595899   20.303133   23.180024 H          1 MOL1         0.0742
      10    C4      20.420800   19.429731   22.368437 C.3        1 MOL1        -0.1880
      11    H5      21.010729   19.595837   23.278779 H          1 MOL1         0.0742
      12    H6      21.099440   19.600635   21.521733 H          1 MOL1         0.0742
      13    C5      19.913201   17.966928   22.344559 C.3        1 MOL1        -0.1880
      14    H7      19.233170   17.796689   23.190301 H          1 MOL1         0.0742
      15    H8      19.325641   17.798540   21.433242 H          1 MOL1         0.0742
      16    C6      21.052167   16.921115   22.378429 C.3        1 MOL1        -0.1856
      17    H9      21.741150   17.095181   21.540399 H          1 MOL1         0.0742
      18    H10     20.618261   15.924056   22.220808 H          1 MOL1         0.0742
      19    C7      21.839701   16.913237   23.706729 C.3        1 MOL1        -0.2871
      20    H11     22.393187   17.849278   23.851311 H          1 MOL1         0.0754
      21    H12     22.568758   16.092674   23.715194 H          1 MOL1         0.0754
      22    H13     21.165873   16.775062   24.562292 H          1 MOL1         0.0754
@<TRIPOS>BOND
    1     1     2    1
    2     1     3    2
    3     1     4    1
    4     4     5    1
    5     4     6    1
    6     4     7    1
    7     7     8    1
    8     7     9    1
    9     7    10    1
   10    10    11    1
   11    10    12    1
   12    10    13    1
   13    13    14    1
   14    13    15    1
   15    13    16    1
   16    16    17    1
   17    16    18    1
   18    16    19    1
   19    19    20    1
   20    19    21    1
   21    19    22    1
@<TRIPOS>SUBSTRUCTURE
       1 MOL1            1 RESIDUE      1      MOL     
@<SCITEGIC>MOL_PROPERTY
VConf Rank
SciTegic.value.IntegerValue
225

@<SCITEGIC>MOL_PROPERTY
Conf_Id
SciTegic.value.IntegerValue
60

@<SCITEGIC>MOL_PROPERTY
Delta U+W
SciTegic.value.DoubleValue
0.386

@<SCITEGIC>MOL_PROPERTY
U+W
SciTegic.value.DoubleValue
-52.773

@<SCITEGIC>MOL_PROPERTY
Grad RMS
SciTegic.value.DoubleValue
0.000000

@<SCITEGIC>MOL_PROPERTY
U
SciTegic.value.DoubleValue
7.689

@<SCITEGIC>MOL_PROPERTY
W
SciTegic.value.DoubleValue
-60.463

@<SCITEGIC>MOL_PROPERTY
W(PB)
SciTegic.value.DoubleValue
-62.772

@<SCITEGIC>MOL_PROPERTY
W(SA)
SciTegic.value.DoubleValue
2.309

@<SCITEGIC>MOL_PROPERTY
Valence
SciTegic.value.DoubleValue
8.197

@<SCITEGIC>MOL_PROPERTY
Coulomb
SciTegic.value.DoubleValue
-1.561

@<SCITEGIC>MOL_PROPERTY
VdW
SciTegic.value.DoubleValue
1.053

@<SCITEGIC>MOL_PROPERTY
VdW6
SciTegic.value.DoubleValue
-7.737

@<SCITEGIC>MOL_PROPERTY
VdW12
SciTegic.value.DoubleValue
8.790

@<SCITEGIC>MOL_PROPERTY
Bond
SciTegic.value.DoubleValue
0.181

@<SCITEGIC>MOL_PROPERTY
Angle
SciTegic.value.DoubleValue
2.780

@<SCITEGIC>MOL_PROPERTY
Pdih
SciTegic.value.DoubleValue
5.235

@<SCITEGIC>MOL_PROPERTY
Idih
SciTegic.value.DoubleValue
0.001

@<SCITEGIC>MOL_PROPERTY
Tether
SciTegic.value.DoubleValue
0.000

@<TRIPOS>MOLECULE
guest-s21_confgen4.mol2 : confsearch ligand conformer 226
          22          21           1
SMALL
USER_CHARGES
 
@<TRIPOS>ATOM
       1    C1      18.401143   21.651650   20.054083 C.2        1 MOL1         0.6145
       2    O1      17.607524   22.316191   20.690548 O.co2      1 MOL1        -0.6735
       3    O2      18.443006   21.634608   18.839785 O.co2      1 MOL1        -0.6735
       4    C2      19.383657   20.773490   20.820756 C.3        1 MOL1        -0.1985
       5    H1      19.627811   21.287179   21.757226 H          1 MOL1         0.0740
       6    H2      20.308277   20.706490   20.235092 H          1 MOL1         0.0740
       7    C3      18.825144   19.354350   21.103103 C.3        1 MOL1        -0.1882
       8    H3      17.926921   19.431009   21.731286 H          1 MOL1         0.0742
       9    H4      18.500938   18.909272   20.152187 H          1 MOL1         0.0742
      10    C4      19.849759   18.404829   21.768907 C.3        1 MOL1        -0.1880
      11    H5      20.749585   18.336902   21.142515 H          1 MOL1         0.0742
      12    H6      19.412369   17.398700   21.795762 H          1 MOL1         0.0742
      13    C5      20.243054   18.832900   23.204209 C.3        1 MOL1        -0.1880
      14    H7      20.683487   19.837606   23.178432 H          1 MOL1         0.0742
      15    H8      19.342924   18.902626   23.829994 H          1 MOL1         0.0742
      16    C6      21.263677   17.881082   23.870906 C.3        1 MOL1        -0.1856
      17    H9      21.590331   18.326090   24.820912 H          1 MOL1         0.0742
      18    H10     22.161090   17.799595   23.242175 H          1 MOL1         0.0742
      19    C7      20.696625   16.472848   24.153717 C.3        1 MOL1        -0.2871
      20    H11     19.778499   16.531886   24.752621 H          1 MOL1         0.0754
      21    H12     21.425611   15.871079   24.711724 H          1 MOL1         0.0754
      22    H13     20.468021   15.937497   23.223897 H          1 MOL1         0.0754
@<TRIPOS>BOND
    1     1     2    1
    2     1     3    2
    3     1     4    1
    4     4     5    1
    5     4     6    1
    6     4     7    1
    7     7     8    1
    8     7     9    1
    9     7    10    1
   10    10    11    1
   11    10    12    1
   12    10    13    1
   13    13    14    1
   14    13    15    1
   15    13    16    1
   16    16    17    1
   17    16    18    1
   18    16    19    1
   19    19    20    1
   20    19    21    1
   21    19    22    1
@<TRIPOS>SUBSTRUCTURE
       1 MOL1            1 RESIDUE      1      MOL     
@<SCITEGIC>MOL_PROPERTY
VConf Rank
SciTegic.value.IntegerValue
226

@<SCITEGIC>MOL_PROPERTY
Conf_Id
SciTegic.value.IntegerValue
28

@<SCITEGIC>MOL_PROPERTY
Delta U+W
SciTegic.value.DoubleValue
0.351

@<SCITEGIC>MOL_PROPERTY
U+W
SciTegic.value.DoubleValue
-52.808

@<SCITEGIC>MOL_PROPERTY
Grad RMS
SciTegic.value.DoubleValue
0.000000

@<SCITEGIC>MOL_PROPERTY
U
SciTegic.value.DoubleValue
7.689

@<SCITEGIC>MOL_PROPERTY
W
SciTegic.value.DoubleValue
-60.498

@<SCITEGIC>MOL_PROPERTY
W(PB)
SciTegic.value.DoubleValue
-62.768

@<SCITEGIC>MOL_PROPERTY
W(SA)
SciTegic.value.DoubleValue
2.270

@<SCITEGIC>MOL_PROPERTY
Valence
SciTegic.value.DoubleValue
8.197

@<SCITEGIC>MOL_PROPERTY
Coulomb
SciTegic.value.DoubleValue
-1.561

@<SCITEGIC>MOL_PROPERTY
VdW
SciTegic.value.DoubleValue
1.053

@<SCITEGIC>MOL_PROPERTY
VdW6
SciTegic.value.DoubleValue
-7.737

@<SCITEGIC>MOL_PROPERTY
VdW12
SciTegic.value.DoubleValue
8.791

@<SCITEGIC>MOL_PROPERTY
Bond
SciTegic.value.DoubleValue
0.181

@<SCITEGIC>MOL_PROPERTY
Angle
SciTegic.value.DoubleValue
2.780

@<SCITEGIC>MOL_PROPERTY
Pdih
SciTegic.value.DoubleValue
5.235

@<SCITEGIC>MOL_PROPERTY
Idih
SciTegic.value.DoubleValue
0.001

@<SCITEGIC>MOL_PROPERTY
Tether
SciTegic.value.DoubleValue
0.000

@<TRIPOS>MOLECULE
guest-s21_confgen4.mol2 : confsearch ligand conformer 227
          22          21           1
SMALL
USER_CHARGES
 
@<TRIPOS>ATOM
       1    C1      23.482137   18.726274   21.175407 C.2        1 MOL1         0.6145
       2    O1      24.086087   17.701891   21.425120 O.co2      1 MOL1        -0.6735
       3    O2      23.570198   19.318820   20.118246 O.co2      1 MOL1        -0.6735
       4    C2      22.546849   19.288367   22.240118 C.3        1 MOL1        -0.1985
       5    H1      22.541314   20.380997   22.146422 H          1 MOL1         0.0740
       6    H2      22.968163   19.049289   23.223964 H          1 MOL1         0.0740
       7    C3      21.104739   18.735449   22.126606 C.3        1 MOL1        -0.1882
       8    H3      20.713008   18.969309   21.127944 H          1 MOL1         0.0742
       9    H4      21.128346   17.640365   22.213428 H          1 MOL1         0.0742
      10    C4      20.177413   19.325193   23.214415 C.3        1 MOL1        -0.1880
      11    H5      20.112068   20.415338   23.094818 H          1 MOL1         0.0742
      12    H6      20.626529   19.147107   24.201098 H          1 MOL1         0.0742
      13    C5      18.754713   18.717382   23.207177 C.3        1 MOL1        -0.1880
      14    H7      18.819389   17.627676   23.330823 H          1 MOL1         0.0742
      15    H8      18.209612   19.097243   24.082105 H          1 MOL1         0.0742
      16    C6      17.948636   19.049970   21.931280 C.3        1 MOL1        -0.1856
      17    H9      18.435882   18.611363   21.050614 H          1 MOL1         0.0742
      18    H10     17.928573   20.137847   21.778548 H          1 MOL1         0.0742
      19    C7      16.503784   18.518868   22.020997 C.3        1 MOL1        -0.2871
      20    H11     15.972010   18.967019   22.870546 H          1 MOL1         0.0754
      21    H12     16.493732   17.428233   22.146693 H          1 MOL1         0.0754
      22    H13     15.945713   18.759890   21.106921 H          1 MOL1         0.0754
@<TRIPOS>BOND
    1     1     2    1
    2     1     3    2
    3     1     4    1
    4     4     5    1
    5     4     6    1
    6     4     7    1
    7     7     8    1
    8     7     9    1
    9     7    10    1
   10    10    11    1
   11    10    12    1
   12    10    13    1
   13    13    14    1
   14    13    15    1
   15    13    16    1
   16    16    17    1
   17    16    18    1
   18    16    19    1
   19    19    20    1
   20    19    21    1
   21    19    22    1
@<TRIPOS>SUBSTRUCTURE
       1 MOL1            1 RESIDUE      1      MOL     
@<SCITEGIC>MOL_PROPERTY
VConf Rank
SciTegic.value.IntegerValue
227

@<SCITEGIC>MOL_PROPERTY
Conf_Id
SciTegic.value.IntegerValue
50

@<SCITEGIC>MOL_PROPERTY
Delta U+W
SciTegic.value.DoubleValue
-0.486

@<SCITEGIC>MOL_PROPERTY
U+W
SciTegic.value.DoubleValue
-53.646

@<SCITEGIC>MOL_PROPERTY
Grad RMS
SciTegic.value.DoubleValue
0.000000

@<SCITEGIC>MOL_PROPERTY
U
SciTegic.value.DoubleValue
7.026

@<SCITEGIC>MOL_PROPERTY
W
SciTegic.value.DoubleValue
-60.672

@<SCITEGIC>MOL_PROPERTY
W(PB)
SciTegic.value.DoubleValue
-62.964

@<SCITEGIC>MOL_PROPERTY
W(SA)
SciTegic.value.DoubleValue
2.292

@<SCITEGIC>MOL_PROPERTY
Valence
SciTegic.value.DoubleValue
7.637

@<SCITEGIC>MOL_PROPERTY
Coulomb
SciTegic.value.DoubleValue
-1.488

@<SCITEGIC>MOL_PROPERTY
VdW
SciTegic.value.DoubleValue
0.877

@<SCITEGIC>MOL_PROPERTY
VdW6
SciTegic.value.DoubleValue
-7.165

@<SCITEGIC>MOL_PROPERTY
VdW12
SciTegic.value.DoubleValue
8.043

@<SCITEGIC>MOL_PROPERTY
Bond
SciTegic.value.DoubleValue
0.134

@<SCITEGIC>MOL_PROPERTY
Angle
SciTegic.value.DoubleValue
2.513

@<SCITEGIC>MOL_PROPERTY
Pdih
SciTegic.value.DoubleValue
4.990

@<SCITEGIC>MOL_PROPERTY
Idih
SciTegic.value.DoubleValue
0.001

@<SCITEGIC>MOL_PROPERTY
Tether
SciTegic.value.DoubleValue
0.000

@<TRIPOS>MOLECULE
guest-s21_confgen4.mol2 : confsearch ligand conformer 228
          22          21           1
SMALL
USER_CHARGES
 
@<TRIPOS>ATOM
       1    C1      23.328142   18.972533   23.305294 C.2        1 MOL1         0.6145
       2    O1      24.018649   18.077038   22.860591 O.co2      1 MOL1        -0.6735
       3    O2      23.378291   19.351685   24.458630 O.co2      1 MOL1        -0.6735
       4    C2      22.329071   19.643740   22.369524 C.3        1 MOL1        -0.1985
       5    H1      22.754984   19.642139   21.358974 H          1 MOL1         0.0740
       6    H2      22.225630   20.691522   22.676284 H          1 MOL1         0.0740
       7    C3      20.945178   18.948661   22.368298 C.3        1 MOL1        -0.1882
       8    H3      21.066961   17.898764   22.067983 H          1 MOL1         0.0742
       9    H4      20.549345   18.945128   23.392394 H          1 MOL1         0.0742
      10    C4      19.951276   19.652021   21.415138 C.3        1 MOL1        -0.1880
      11    H5      20.399335   19.712843   20.413886 H          1 MOL1         0.0742
      12    H6      19.788962   20.686860   21.746425 H          1 MOL1         0.0742
      13    C5      18.590008   18.926051   21.299049 C.3        1 MOL1        -0.1880
      14    H7      17.999149   19.417981   20.514308 H          1 MOL1         0.0742
      15    H8      18.751553   17.892341   20.963967 H          1 MOL1         0.0742
      16    C6      17.776882   18.926632   22.613247 C.3        1 MOL1        -0.1856
      17    H9      17.660417   19.956970   22.976627 H          1 MOL1         0.0742
      18    H10     18.315537   18.370853   23.391912 H          1 MOL1         0.0742
      19    C7      16.385048   18.292574   22.417066 C.3        1 MOL1        -0.2871
      20    H11     16.472189   17.251469   22.079587 H          1 MOL1         0.0754
      21    H12     15.801687   18.847467   21.670647 H          1 MOL1         0.0754
      22    H13     15.821576   18.297486   23.359162 H          1 MOL1         0.0754
@<TRIPOS>BOND
    1     1     2    1
    2     1     3    2
    3     1     4    1
    4     4     5    1
    5     4     6    1
    6     4     7    1
    7     7     8    1
    8     7     9    1
    9     7    10    1
   10    10    11    1
   11    10    12    1
   12    10    13    1
   13    13    14    1
   14    13    15    1
   15    13    16    1
   16    16    17    1
   17    16    18    1
   18    16    19    1
   19    19    20    1
   20    19    21    1
   21    19    22    1
@<TRIPOS>SUBSTRUCTURE
       1 MOL1            1 RESIDUE      1      MOL     
@<SCITEGIC>MOL_PROPERTY
VConf Rank
SciTegic.value.IntegerValue
228

@<SCITEGIC>MOL_PROPERTY
Conf_Id
SciTegic.value.IntegerValue
51

@<SCITEGIC>MOL_PROPERTY
Delta U+W
SciTegic.value.DoubleValue
-0.517

@<SCITEGIC>MOL_PROPERTY
U+W
SciTegic.value.DoubleValue
-53.677

@<SCITEGIC>MOL_PROPERTY
Grad RMS
SciTegic.value.DoubleValue
0.000000

@<SCITEGIC>MOL_PROPERTY
U
SciTegic.value.DoubleValue
7.026

@<SCITEGIC>MOL_PROPERTY
W
SciTegic.value.DoubleValue
-60.703

@<SCITEGIC>MOL_PROPERTY
W(PB)
SciTegic.value.DoubleValue
-63.007

@<SCITEGIC>MOL_PROPERTY
W(SA)
SciTegic.value.DoubleValue
2.304

@<SCITEGIC>MOL_PROPERTY
Valence
SciTegic.value.DoubleValue
7.638

@<SCITEGIC>MOL_PROPERTY
Coulomb
SciTegic.value.DoubleValue
-1.488

@<SCITEGIC>MOL_PROPERTY
VdW
SciTegic.value.DoubleValue
0.877

@<SCITEGIC>MOL_PROPERTY
VdW6
SciTegic.value.DoubleValue
-7.165

@<SCITEGIC>MOL_PROPERTY
VdW12
SciTegic.value.DoubleValue
8.042

@<SCITEGIC>MOL_PROPERTY
Bond
SciTegic.value.DoubleValue
0.134

@<SCITEGIC>MOL_PROPERTY
Angle
SciTegic.value.DoubleValue
2.513

@<SCITEGIC>MOL_PROPERTY
Pdih
SciTegic.value.DoubleValue
4.990

@<SCITEGIC>MOL_PROPERTY
Idih
SciTegic.value.DoubleValue
0.001

@<SCITEGIC>MOL_PROPERTY
Tether
SciTegic.value.DoubleValue
0.000

@<TRIPOS>MOLECULE
guest-s21_confgen4.mol2 : confsearch ligand conformer 229
          22          21           1
SMALL
USER_CHARGES
 
@<TRIPOS>ATOM
       1    C1      21.051165   22.091915   21.652442 C.2        1 MOL1         0.6145
       2    O1      21.385298   22.711121   22.643321 O.co2      1 MOL1        -0.6735
       3    O2      21.805451   21.832403   20.735656 O.co2      1 MOL1        -0.6735
       4    C2      19.599614   21.632492   21.547260 C.3        1 MOL1        -0.1985
       5    H1      19.377428   21.411745   20.496160 H          1 MOL1         0.0740
       6    H2      18.965862   22.479809   21.834408 H          1 MOL1         0.0740
       7    C3      19.259868   20.407282   22.435193 C.3        1 MOL1        -0.1882
       8    H3      19.513931   20.633486   23.480151 H          1 MOL1         0.0742
       9    H4      18.175635   20.234084   22.403819 H          1 MOL1         0.0742
      10    C4      19.993868   19.124612   21.983986 C.3        1 MOL1        -0.1880
      11    H5      21.080065   19.284459   22.029071 H          1 MOL1         0.0742
      12    H6      19.746970   18.910251   20.935126 H          1 MOL1         0.0742
      13    C5      19.617112   17.911587   22.861526 C.3        1 MOL1        -0.1880
      14    H7      19.864338   18.126705   23.910197 H          1 MOL1         0.0742
      15    H8      18.531673   17.747909   22.815823 H          1 MOL1         0.0742
      16    C6      20.350337   16.630429   22.412012 C.3        1 MOL1        -0.1856
      17    H9      21.436597   16.789843   22.458146 H          1 MOL1         0.0742
      18    H10     20.104108   16.411095   21.363810 H          1 MOL1         0.0742
      19    C7      19.972130   15.421412   23.290984 C.3        1 MOL1        -0.2871
      20    H11     20.236769   15.601294   24.341227 H          1 MOL1         0.0754
      21    H12     20.502229   14.519804   22.957545 H          1 MOL1         0.0754
      22    H13     18.894183   15.219690   23.238691 H          1 MOL1         0.0754
@<TRIPOS>BOND
    1     1     2    1
    2     1     3    2
    3     1     4    1
    4     4     5    1
    5     4     6    1
    6     4     7    1
    7     7     8    1
    8     7     9    1
    9     7    10    1
   10    10    11    1
   11    10    12    1
   12    10    13    1
   13    13    14    1
   14    13    15    1
   15    13    16    1
   16    16    17    1
   17    16    18    1
   18    16    19    1
   19    19    20    1
   20    19    21    1
   21    19    22    1
@<TRIPOS>SUBSTRUCTURE
       1 MOL1            1 RESIDUE      1      MOL     
@<SCITEGIC>MOL_PROPERTY
VConf Rank
SciTegic.value.IntegerValue
229

@<SCITEGIC>MOL_PROPERTY
Conf_Id
SciTegic.value.IntegerValue
43

@<SCITEGIC>MOL_PROPERTY
Delta U+W
SciTegic.value.DoubleValue
-0.129

@<SCITEGIC>MOL_PROPERTY
U+W
SciTegic.value.DoubleValue
-53.289

@<SCITEGIC>MOL_PROPERTY
Grad RMS
SciTegic.value.DoubleValue
0.000000

@<SCITEGIC>MOL_PROPERTY
U
SciTegic.value.DoubleValue
7.937

@<SCITEGIC>MOL_PROPERTY
W
SciTegic.value.DoubleValue
-61.225

@<SCITEGIC>MOL_PROPERTY
W(PB)
SciTegic.value.DoubleValue
-63.523

@<SCITEGIC>MOL_PROPERTY
W(SA)
SciTegic.value.DoubleValue
2.297

@<SCITEGIC>MOL_PROPERTY
Valence
SciTegic.value.DoubleValue
7.358

@<SCITEGIC>MOL_PROPERTY
Coulomb
SciTegic.value.DoubleValue
-0.022

@<SCITEGIC>MOL_PROPERTY
VdW
SciTegic.value.DoubleValue
0.601

@<SCITEGIC>MOL_PROPERTY
VdW6
SciTegic.value.DoubleValue
-7.363

@<SCITEGIC>MOL_PROPERTY
VdW12
SciTegic.value.DoubleValue
7.964

@<SCITEGIC>MOL_PROPERTY
Bond
SciTegic.value.DoubleValue
0.121

@<SCITEGIC>MOL_PROPERTY
Angle
SciTegic.value.DoubleValue
2.425

@<SCITEGIC>MOL_PROPERTY
Pdih
SciTegic.value.DoubleValue
4.811

@<SCITEGIC>MOL_PROPERTY
Idih
SciTegic.value.DoubleValue
0.000

@<SCITEGIC>MOL_PROPERTY
Tether
SciTegic.value.DoubleValue
0.000

@<TRIPOS>MOLECULE
guest-s21_confgen4.mol2 : confsearch ligand conformer 230
          22          21           1
SMALL
USER_CHARGES
 
@<TRIPOS>ATOM
       1    C1      22.421533   21.074316   23.137006 C.2        1 MOL1         0.6145
       2    O1      22.278624   21.687410   24.176523 O.co2      1 MOL1        -0.6735
       3    O2      22.569681   21.609162   22.055903 O.co2      1 MOL1        -0.6735
       4    C2      22.433646   19.549417   23.197536 C.3        1 MOL1        -0.1985
       5    H1      23.082564   19.259533   24.032349 H          1 MOL1         0.0740
       6    H2      22.902601   19.166343   22.283075 H          1 MOL1         0.0740
       7    C3      21.031488   18.914480   23.386766 C.3        1 MOL1        -0.1882
       8    H3      21.148823   17.835762   23.557476 H          1 MOL1         0.0742
       9    H4      20.563400   19.328680   24.290638 H          1 MOL1         0.0742
      10    C4      20.107778   19.139934   22.168768 C.3        1 MOL1        -0.1880
      11    H5      20.585908   18.735961   21.265877 H          1 MOL1         0.0742
      12    H6      19.971650   20.217449   22.001922 H          1 MOL1         0.0742
      13    C5      18.729281   18.473218   22.365477 C.3        1 MOL1        -0.1880
      14    H7      18.862549   17.395100   22.529671 H          1 MOL1         0.0742
      15    H8      18.251784   18.877742   23.268509 H          1 MOL1         0.0742
      16    C6      17.805987   18.698597   21.149837 C.3        1 MOL1        -0.1856
      17    H9      18.279656   18.293684   20.244770 H          1 MOL1         0.0742
      18    H10     17.668898   19.776130   20.983607 H          1 MOL1         0.0742
      19    C7      16.430185   18.031959   21.350136 C.3        1 MOL1        -0.2871
      20    H11     16.535333   16.947766   21.487489 H          1 MOL1         0.0754
      21    H12     15.787029   18.202170   20.476944 H          1 MOL1         0.0754
      22    H13     15.919991   18.441423   22.231863 H          1 MOL1         0.0754
@<TRIPOS>BOND
    1     1     2    1
    2     1     3    2
    3     1     4    1
    4     4     5    1
    5     4     6    1
    6     4     7    1
    7     7     8    1
    8     7     9    1
    9     7    10    1
   10    10    11    1
   11    10    12    1
   12    10    13    1
   13    13    14    1
   14    13    15    1
   15    13    16    1
   16    16    17    1
   17    16    18    1
   18    16    19    1
   19    19    20    1
   20    19    21    1
   21    19    22    1
@<TRIPOS>SUBSTRUCTURE
       1 MOL1            1 RESIDUE      1      MOL     
@<SCITEGIC>MOL_PROPERTY
VConf Rank
SciTegic.value.IntegerValue
230

@<SCITEGIC>MOL_PROPERTY
Conf_Id
SciTegic.value.IntegerValue
44

@<SCITEGIC>MOL_PROPERTY
Delta U+W
SciTegic.value.DoubleValue
-0.155

@<SCITEGIC>MOL_PROPERTY
U+W
SciTegic.value.DoubleValue
-53.314

@<SCITEGIC>MOL_PROPERTY
Grad RMS
SciTegic.value.DoubleValue
0.000000

@<SCITEGIC>MOL_PROPERTY
U
SciTegic.value.DoubleValue
7.937

@<SCITEGIC>MOL_PROPERTY
W
SciTegic.value.DoubleValue
-61.252

@<SCITEGIC>MOL_PROPERTY
W(PB)
SciTegic.value.DoubleValue
-63.556

@<SCITEGIC>MOL_PROPERTY
W(SA)
SciTegic.value.DoubleValue
2.304

@<SCITEGIC>MOL_PROPERTY
Valence
SciTegic.value.DoubleValue
7.358

@<SCITEGIC>MOL_PROPERTY
Coulomb
SciTegic.value.DoubleValue
-0.021

@<SCITEGIC>MOL_PROPERTY
VdW
SciTegic.value.DoubleValue
0.600

@<SCITEGIC>MOL_PROPERTY
VdW6
SciTegic.value.DoubleValue
-7.363

@<SCITEGIC>MOL_PROPERTY
VdW12
SciTegic.value.DoubleValue
7.964

@<SCITEGIC>MOL_PROPERTY
Bond
SciTegic.value.DoubleValue
0.121

@<SCITEGIC>MOL_PROPERTY
Angle
SciTegic.value.DoubleValue
2.425

@<SCITEGIC>MOL_PROPERTY
Pdih
SciTegic.value.DoubleValue
4.811

@<SCITEGIC>MOL_PROPERTY
Idih
SciTegic.value.DoubleValue
0.001

@<SCITEGIC>MOL_PROPERTY
Tether
SciTegic.value.DoubleValue
0.000

@<TRIPOS>MOLECULE
guest-s21_confgen4.mol2 : confsearch ligand conformer 231
          22          21           1
SMALL
USER_CHARGES
 
@<TRIPOS>ATOM
       1    C1      17.953322   16.006487   21.864834 C.2        1 MOL1         0.6145
       2    O1      17.306035   15.724654   22.854033 O.co2      1 MOL1        -0.6735
       3    O2      18.692497   15.224581   21.299936 O.co2      1 MOL1        -0.6735
       4    C2      17.814138   17.413915   21.291176 C.3        1 MOL1        -0.1985
       5    H1      16.743965   17.650215   21.260790 H          1 MOL1         0.0740
       6    H2      18.166944   17.405808   20.252739 H          1 MOL1         0.0740
       7    C3      18.561823   18.504393   22.102009 C.3        1 MOL1        -0.1882
       8    H3      18.276813   19.487631   21.706815 H          1 MOL1         0.0742
       9    H4      18.227250   18.473308   23.148190 H          1 MOL1         0.0742
      10    C4      20.099619   18.342311   22.037796 C.3        1 MOL1        -0.1880
      11    H5      20.436928   18.415885   20.994910 H          1 MOL1         0.0742
      12    H6      20.370295   17.333903   22.379613 H          1 MOL1         0.0742
      13    C5      20.864870   19.370699   22.904186 C.3        1 MOL1        -0.1880
      14    H7      20.527082   19.296916   23.946958 H          1 MOL1         0.0742
      15    H8      21.929938   19.101381   22.903275 H          1 MOL1         0.0742
      16    C6      20.716403   20.827380   22.409755 C.3        1 MOL1        -0.1856
      17    H9      19.667984   21.145696   22.478357 H          1 MOL1         0.0742
      18    H10     21.002542   20.890353   21.350815 H          1 MOL1         0.0742
      19    C7      21.588562   21.795654   23.234087 C.3        1 MOL1        -0.2871
      20    H11     21.305130   21.773002   24.294529 H          1 MOL1         0.0754
      21    H12     21.469777   22.825625   22.873374 H          1 MOL1         0.0754
      22    H13     22.651141   21.530358   23.157268 H          1 MOL1         0.0754
@<TRIPOS>BOND
    1     1     2    1
    2     1     3    2
    3     1     4    1
    4     4     5    1
    5     4     6    1
    6     4     7    1
    7     7     8    1
    8     7     9    1
    9     7    10    1
   10    10    11    1
   11    10    12    1
   12    10    13    1
   13    13    14    1
   14    13    15    1
   15    13    16    1
   16    16    17    1
   17    16    18    1
   18    16    19    1
   19    19    20    1
   20    19    21    1
   21    19    22    1
@<TRIPOS>SUBSTRUCTURE
       1 MOL1            1 RESIDUE      1      MOL     
@<SCITEGIC>MOL_PROPERTY
VConf Rank
SciTegic.value.IntegerValue
231

@<SCITEGIC>MOL_PROPERTY
Conf_Id
SciTegic.value.IntegerValue
53

@<SCITEGIC>MOL_PROPERTY
Delta U+W
SciTegic.value.DoubleValue
0.723

@<SCITEGIC>MOL_PROPERTY
U+W
SciTegic.value.DoubleValue
-52.436

@<SCITEGIC>MOL_PROPERTY
Grad RMS
SciTegic.value.DoubleValue
0.000000

@<SCITEGIC>MOL_PROPERTY
U
SciTegic.value.DoubleValue
8.587

@<SCITEGIC>MOL_PROPERTY
W
SciTegic.value.DoubleValue
-61.022

@<SCITEGIC>MOL_PROPERTY
W(PB)
SciTegic.value.DoubleValue
-63.285

@<SCITEGIC>MOL_PROPERTY
W(SA)
SciTegic.value.DoubleValue
2.263

@<SCITEGIC>MOL_PROPERTY
Valence
SciTegic.value.DoubleValue
7.933

@<SCITEGIC>MOL_PROPERTY
Coulomb
SciTegic.value.DoubleValue
-0.124

@<SCITEGIC>MOL_PROPERTY
VdW
SciTegic.value.DoubleValue
0.778

@<SCITEGIC>MOL_PROPERTY
VdW6
SciTegic.value.DoubleValue
-7.981

@<SCITEGIC>MOL_PROPERTY
VdW12
SciTegic.value.DoubleValue
8.759

@<SCITEGIC>MOL_PROPERTY
Bond
SciTegic.value.DoubleValue
0.160

@<SCITEGIC>MOL_PROPERTY
Angle
SciTegic.value.DoubleValue
2.698

@<SCITEGIC>MOL_PROPERTY
Pdih
SciTegic.value.DoubleValue
5.074

@<SCITEGIC>MOL_PROPERTY
Idih
SciTegic.value.DoubleValue
0.001

@<SCITEGIC>MOL_PROPERTY
Tether
SciTegic.value.DoubleValue
0.000

@<TRIPOS>MOLECULE
guest-s21_confgen4.mol2 : confsearch ligand conformer 232
          22          21           1
SMALL
USER_CHARGES
 
@<TRIPOS>ATOM
       1    C1      19.675964   19.372939   25.667421 C.2        1 MOL1         0.6145
       2    O1      20.724961   19.863485   26.035575 O.co2      1 MOL1        -0.6735
       3    O2      18.740924   19.148767   26.410407 O.co2      1 MOL1        -0.6735
       4    C2      19.515664   19.040914   24.188210 C.3        1 MOL1        -0.1985
       5    H1      18.846160   18.176720   24.103269 H          1 MOL1         0.0740
       6    H2      20.497711   18.737124   23.808704 H          1 MOL1         0.0740
       7    C3      18.963637   20.230282   23.362496 C.3        1 MOL1        -0.1882
       8    H3      18.049782   20.601037   23.847090 H          1 MOL1         0.0742
       9    H4      19.685593   21.057949   23.394140 H          1 MOL1         0.0742
      10    C4      18.632872   19.885728   21.888541 C.3        1 MOL1        -0.1880
      11    H5      18.208554   20.787203   21.425674 H          1 MOL1         0.0742
      12    H6      17.838942   19.127494   21.847184 H          1 MOL1         0.0742
      13    C5      19.850370   19.436093   21.041644 C.3        1 MOL1        -0.1880
      14    H7      19.731572   19.832176   20.023804 H          1 MOL1         0.0742
      15    H8      20.771954   19.883962   21.437951 H          1 MOL1         0.0742
      16    C6      19.996175   17.899808   20.945099 C.3        1 MOL1        -0.1856
      17    H9      19.090032   17.472392   20.494083 H          1 MOL1         0.0742
      18    H10     20.088196   17.456857   21.943945 H          1 MOL1         0.0742
      19    C7      21.222030   17.500387   20.099478 C.3        1 MOL1        -0.2871
      20    H11     21.140872   17.895369   19.078334 H          1 MOL1         0.0754
      21    H12     21.307830   16.407935   20.034523 H          1 MOL1         0.0754
      22    H13     22.148196   17.887245   20.544356 H          1 MOL1         0.0754
@<TRIPOS>BOND
    1     1     2    1
    2     1     3    2
    3     1     4    1
    4     4     5    1
    5     4     6    1
    6     4     7    1
    7     7     8    1
    8     7     9    1
    9     7    10    1
   10    10    11    1
   11    10    12    1
   12    10    13    1
   13    13    14    1
   14    13    15    1
   15    13    16    1
   16    16    17    1
   17    16    18    1
   18    16    19    1
   19    19    20    1
   20    19    21    1
   21    19    22    1
@<TRIPOS>SUBSTRUCTURE
       1 MOL1            1 RESIDUE      1      MOL     
@<SCITEGIC>MOL_PROPERTY
VConf Rank
SciTegic.value.IntegerValue
232

@<SCITEGIC>MOL_PROPERTY
Conf_Id
SciTegic.value.IntegerValue
5

@<SCITEGIC>MOL_PROPERTY
Delta U+W
SciTegic.value.DoubleValue
2.167

@<SCITEGIC>MOL_PROPERTY
U+W
SciTegic.value.DoubleValue
-50.993

@<SCITEGIC>MOL_PROPERTY
Grad RMS
SciTegic.value.DoubleValue
0.000000

@<SCITEGIC>MOL_PROPERTY
U
SciTegic.value.DoubleValue
10.045

@<SCITEGIC>MOL_PROPERTY
W
SciTegic.value.DoubleValue
-61.037

@<SCITEGIC>MOL_PROPERTY
W(PB)
SciTegic.value.DoubleValue
-63.303

@<SCITEGIC>MOL_PROPERTY
W(SA)
SciTegic.value.DoubleValue
2.266

@<SCITEGIC>MOL_PROPERTY
Valence
SciTegic.value.DoubleValue
10.100

@<SCITEGIC>MOL_PROPERTY
Coulomb
SciTegic.value.DoubleValue
-0.883

@<SCITEGIC>MOL_PROPERTY
VdW
SciTegic.value.DoubleValue
0.828

@<SCITEGIC>MOL_PROPERTY
VdW6
SciTegic.value.DoubleValue
-8.177

@<SCITEGIC>MOL_PROPERTY
VdW12
SciTegic.value.DoubleValue
9.005

@<SCITEGIC>MOL_PROPERTY
Bond
SciTegic.value.DoubleValue
0.182

@<SCITEGIC>MOL_PROPERTY
Angle
SciTegic.value.DoubleValue
2.988

@<SCITEGIC>MOL_PROPERTY
Pdih
SciTegic.value.DoubleValue
6.930

@<SCITEGIC>MOL_PROPERTY
Idih
SciTegic.value.DoubleValue
0.001

@<SCITEGIC>MOL_PROPERTY
Tether
SciTegic.value.DoubleValue
0.000

@<TRIPOS>MOLECULE
guest-s21_confgen4.mol2 : confsearch ligand conformer 233
          22          21           1
SMALL
USER_CHARGES
 
@<TRIPOS>ATOM
       1    C1      18.153244   20.934078   20.324316 C.2        1 MOL1         0.6145
       2    O1      18.797702   21.121210   19.311289 O.co2      1 MOL1        -0.6735
       3    O2      17.093952   21.481546   20.558331 O.co2      1 MOL1        -0.6735
       4    C2      18.715430   19.977315   21.369569 C.3        1 MOL1        -0.1985
       5    H1      19.259086   19.188320   20.837916 H          1 MOL1         0.0740
       6    H2      17.872544   19.506194   21.889057 H          1 MOL1         0.0740
       7    C3      19.647433   20.681154   22.387961 C.3        1 MOL1        -0.1882
       8    H3      20.525742   21.077397   21.859927 H          1 MOL1         0.0742
       9    H4      19.120790   21.551151   22.804104 H          1 MOL1         0.0742
      10    C4      20.109329   19.779582   23.560348 C.3        1 MOL1        -0.1880
      11    H5      19.242378   19.458666   24.153949 H          1 MOL1         0.0742
      12    H6      20.718559   20.398630   24.233077 H          1 MOL1         0.0742
      13    C5      20.954889   18.551926   23.136555 C.3        1 MOL1        -0.1880
      14    H7      21.489569   18.766572   22.201137 H          1 MOL1         0.0742
      15    H8      21.728193   18.382327   23.898283 H          1 MOL1         0.0742
      16    C6      20.125200   17.254614   22.997441 C.3        1 MOL1        -0.1856
      17    H9      19.319471   17.387819   22.265714 H          1 MOL1         0.0742
      18    H10     19.643016   17.022229   23.956967 H          1 MOL1         0.0742
      19    C7      21.005839   16.063612   22.569280 C.3        1 MOL1        -0.2871
      20    H11     21.476562   16.253948   21.595858 H          1 MOL1         0.0754
      21    H12     20.404359   15.149491   22.481891 H          1 MOL1         0.0754
      22    H13     21.800184   15.877796   23.304005 H          1 MOL1         0.0754
@<TRIPOS>BOND
    1     1     2    1
    2     1     3    2
    3     1     4    1
    4     4     5    1
    5     4     6    1
    6     4     7    1
    7     7     8    1
    8     7     9    1
    9     7    10    1
   10    10    11    1
   11    10    12    1
   12    10    13    1
   13    13    14    1
   14    13    15    1
   15    13    16    1
   16    16    17    1
   17    16    18    1
   18    16    19    1
   19    19    20    1
   20    19    21    1
   21    19    22    1
@<TRIPOS>SUBSTRUCTURE
       1 MOL1            1 RESIDUE      1      MOL     
@<SCITEGIC>MOL_PROPERTY
VConf Rank
SciTegic.value.IntegerValue
233

@<SCITEGIC>MOL_PROPERTY
Conf_Id
SciTegic.value.IntegerValue
6

@<SCITEGIC>MOL_PROPERTY
Delta U+W
SciTegic.value.DoubleValue
2.118

@<SCITEGIC>MOL_PROPERTY
U+W
SciTegic.value.DoubleValue
-51.042

@<SCITEGIC>MOL_PROPERTY
Grad RMS
SciTegic.value.DoubleValue
0.000000

@<SCITEGIC>MOL_PROPERTY
U
SciTegic.value.DoubleValue
10.045

@<SCITEGIC>MOL_PROPERTY
W
SciTegic.value.DoubleValue
-61.086

@<SCITEGIC>MOL_PROPERTY
W(PB)
SciTegic.value.DoubleValue
-63.356

@<SCITEGIC>MOL_PROPERTY
W(SA)
SciTegic.value.DoubleValue
2.270

@<SCITEGIC>MOL_PROPERTY
Valence
SciTegic.value.DoubleValue
10.100

@<SCITEGIC>MOL_PROPERTY
Coulomb
SciTegic.value.DoubleValue
-0.883

@<SCITEGIC>MOL_PROPERTY
VdW
SciTegic.value.DoubleValue
0.828

@<SCITEGIC>MOL_PROPERTY
VdW6
SciTegic.value.DoubleValue
-8.177

@<SCITEGIC>MOL_PROPERTY
VdW12
SciTegic.value.DoubleValue
9.004

@<SCITEGIC>MOL_PROPERTY
Bond
SciTegic.value.DoubleValue
0.182

@<SCITEGIC>MOL_PROPERTY
Angle
SciTegic.value.DoubleValue
2.988

@<SCITEGIC>MOL_PROPERTY
Pdih
SciTegic.value.DoubleValue
6.930

@<SCITEGIC>MOL_PROPERTY
Idih
SciTegic.value.DoubleValue
0.001

@<SCITEGIC>MOL_PROPERTY
Tether
SciTegic.value.DoubleValue
0.000

@<TRIPOS>MOLECULE
guest-s21_confgen4.mol2 : confsearch ligand conformer 234
          22          21           1
SMALL
USER_CHARGES
 
@<TRIPOS>ATOM
       1    C1      17.274698   18.684803   23.887924 C.2        1 MOL1         0.6145
       2    O1      17.396117   17.727746   24.627380 O.co2      1 MOL1        -0.6735
       3    O2      16.581005   18.676996   22.890034 O.co2      1 MOL1        -0.6735
       4    C2      17.973336   19.988746   24.268837 C.3        1 MOL1        -0.1985
       5    H1      17.532082   20.308169   25.220044 H          1 MOL1         0.0740
       6    H2      17.718496   20.758734   23.530584 H          1 MOL1         0.0740
       7    C3      19.516096   19.891383   24.434643 C.3        1 MOL1        -0.1882
       8    H3      19.845668   20.742866   25.045201 H          1 MOL1         0.0742
       9    H4      19.775166   18.990447   25.008029 H          1 MOL1         0.0742
      10    C4      20.315334   19.924978   23.108369 C.3        1 MOL1        -0.1880
      11    H5      21.382820   20.007440   23.354636 H          1 MOL1         0.0742
      12    H6      20.057814   20.831896   22.544443 H          1 MOL1         0.0742
      13    C5      20.106799   18.681142   22.215120 C.3        1 MOL1        -0.1880
      14    H7      20.264927   17.770029   22.808344 H          1 MOL1         0.0742
      15    H8      19.071942   18.652291   21.851389 H          1 MOL1         0.0742
      16    C6      21.063066   18.681968   21.003716 C.3        1 MOL1        -0.1856
      17    H9      22.104740   18.701765   21.352829 H          1 MOL1         0.0742
      18    H10     20.907318   19.593589   20.410334 H          1 MOL1         0.0742
      19    C7      20.847023   17.444950   20.108993 C.3        1 MOL1        -0.2871
      20    H11     21.026948   16.518547   20.670040 H          1 MOL1         0.0754
      21    H12     21.533584   17.461812   19.252621 H          1 MOL1         0.0754
      22    H13     19.820504   17.416233   19.720488 H          1 MOL1         0.0754
@<TRIPOS>BOND
    1     1     2    1
    2     1     3    2
    3     1     4    1
    4     4     5    1
    5     4     6    1
    6     4     7    1
    7     7     8    1
    8     7     9    1
    9     7    10    1
   10    10    11    1
   11    10    12    1
   12    10    13    1
   13    13    14    1
   14    13    15    1
   15    13    16    1
   16    16    17    1
   17    16    18    1
   18    16    19    1
   19    19    20    1
   20    19    21    1
   21    19    22    1
@<TRIPOS>SUBSTRUCTURE
       1 MOL1            1 RESIDUE      1      MOL     
@<SCITEGIC>MOL_PROPERTY
VConf Rank
SciTegic.value.IntegerValue
234

@<SCITEGIC>MOL_PROPERTY
Conf_Id
SciTegic.value.IntegerValue
8

@<SCITEGIC>MOL_PROPERTY
Delta U+W
SciTegic.value.DoubleValue
1.886

@<SCITEGIC>MOL_PROPERTY
U+W
SciTegic.value.DoubleValue
-51.274

@<SCITEGIC>MOL_PROPERTY
Grad RMS
SciTegic.value.DoubleValue
0.000000

@<SCITEGIC>MOL_PROPERTY
U
SciTegic.value.DoubleValue
11.237

@<SCITEGIC>MOL_PROPERTY
W
SciTegic.value.DoubleValue
-62.510

@<SCITEGIC>MOL_PROPERTY
W(PB)
SciTegic.value.DoubleValue
-64.777

@<SCITEGIC>MOL_PROPERTY
W(SA)
SciTegic.value.DoubleValue
2.267

@<SCITEGIC>MOL_PROPERTY
Valence
SciTegic.value.DoubleValue
9.029

@<SCITEGIC>MOL_PROPERTY
Coulomb
SciTegic.value.DoubleValue
1.667

@<SCITEGIC>MOL_PROPERTY
VdW
SciTegic.value.DoubleValue
0.540

@<SCITEGIC>MOL_PROPERTY
VdW6
SciTegic.value.DoubleValue
-8.825

@<SCITEGIC>MOL_PROPERTY
VdW12
SciTegic.value.DoubleValue
9.365

@<SCITEGIC>MOL_PROPERTY
Bond
SciTegic.value.DoubleValue
0.186

@<SCITEGIC>MOL_PROPERTY
Angle
SciTegic.value.DoubleValue
3.195

@<SCITEGIC>MOL_PROPERTY
Pdih
SciTegic.value.DoubleValue
5.642

@<SCITEGIC>MOL_PROPERTY
Idih
SciTegic.value.DoubleValue
0.007

@<SCITEGIC>MOL_PROPERTY
Tether
SciTegic.value.DoubleValue
0.000

@<TRIPOS>MOLECULE
guest-s21_confgen4.mol2 : confsearch ligand conformer 235
          22          21           1
SMALL
USER_CHARGES
 
@<TRIPOS>ATOM
       1    C1      19.713711   17.781345   19.588883 C.2        1 MOL1         0.6145
       2    O1      18.724313   18.434586   19.322177 O.co2      1 MOL1        -0.6735
       3    O2      19.838218   16.605248   19.308522 O.co2      1 MOL1        -0.6735
       4    C2      20.876513   18.481094   20.287027 C.3        1 MOL1        -0.1985
       5    H1      20.729030   19.564507   20.215106 H          1 MOL1         0.0740
       6    H2      21.783545   18.254286   19.714685 H          1 MOL1         0.0740
       7    C3      21.082311   18.050594   21.765359 C.3        1 MOL1        -0.1882
       8    H3      21.305814   16.975049   21.789367 H          1 MOL1         0.0742
       9    H4      21.969389   18.557601   22.168305 H          1 MOL1         0.0742
      10    C4      19.872468   18.326973   22.691980 C.3        1 MOL1        -0.1880
      11    H5      20.096021   17.898468   23.677070 H          1 MOL1         0.0742
      12    H6      18.988044   17.794588   22.316104 H          1 MOL1         0.0742
      13    C5      19.545499   19.832550   22.846169 C.3        1 MOL1        -0.1880
      14    H7      20.433393   20.371713   23.203155 H          1 MOL1         0.0742
      15    H8      19.297813   20.252038   21.862495 H          1 MOL1         0.0742
      16    C6      18.355545   20.108607   23.794747 C.3        1 MOL1        -0.1856
      17    H9      17.470014   19.557904   23.448426 H          1 MOL1         0.0742
      18    H10     18.099608   21.175452   23.735474 H          1 MOL1         0.0742
      19    C7      18.648350   19.751469   25.268358 C.3        1 MOL1        -0.2871
      20    H11     18.790952   18.671752   25.399598 H          1 MOL1         0.0754
      21    H12     17.811144   20.055360   25.909945 H          1 MOL1         0.0754
      22    H13     19.550805   20.264646   25.625184 H          1 MOL1         0.0754
@<TRIPOS>BOND
    1     1     2    1
    2     1     3    2
    3     1     4    1
    4     4     5    1
    5     4     6    1
    6     4     7    1
    7     7     8    1
    8     7     9    1
    9     7    10    1
   10    10    11    1
   11    10    12    1
   12    10    13    1
   13    13    14    1
   14    13    15    1
   15    13    16    1
   16    16    17    1
   17    16    18    1
   18    16    19    1
   19    19    20    1
   20    19    21    1
   21    19    22    1
@<TRIPOS>SUBSTRUCTURE
       1 MOL1            1 RESIDUE      1      MOL     
@<SCITEGIC>MOL_PROPERTY
VConf Rank
SciTegic.value.IntegerValue
235

@<SCITEGIC>MOL_PROPERTY
Conf_Id
SciTegic.value.IntegerValue
93

@<SCITEGIC>MOL_PROPERTY
Delta U+W
SciTegic.value.DoubleValue
1.836

@<SCITEGIC>MOL_PROPERTY
U+W
SciTegic.value.DoubleValue
-51.323

@<SCITEGIC>MOL_PROPERTY
Grad RMS
SciTegic.value.DoubleValue
0.000000

@<SCITEGIC>MOL_PROPERTY
U
SciTegic.value.DoubleValue
10.427

@<SCITEGIC>MOL_PROPERTY
W
SciTegic.value.DoubleValue
-61.751

@<SCITEGIC>MOL_PROPERTY
W(PB)
SciTegic.value.DoubleValue
-63.980

@<SCITEGIC>MOL_PROPERTY
W(SA)
SciTegic.value.DoubleValue
2.230

@<SCITEGIC>MOL_PROPERTY
Valence
SciTegic.value.DoubleValue
8.446

@<SCITEGIC>MOL_PROPERTY
Coulomb
SciTegic.value.DoubleValue
1.306

@<SCITEGIC>MOL_PROPERTY
VdW
SciTegic.value.DoubleValue
0.676

@<SCITEGIC>MOL_PROPERTY
VdW6
SciTegic.value.DoubleValue
-8.928

@<SCITEGIC>MOL_PROPERTY
VdW12
SciTegic.value.DoubleValue
9.604

@<SCITEGIC>MOL_PROPERTY
Bond
SciTegic.value.DoubleValue
0.209

@<SCITEGIC>MOL_PROPERTY
Angle
SciTegic.value.DoubleValue
3.066

@<SCITEGIC>MOL_PROPERTY
Pdih
SciTegic.value.DoubleValue
5.170

@<SCITEGIC>MOL_PROPERTY
Idih
SciTegic.value.DoubleValue
0.001

@<SCITEGIC>MOL_PROPERTY
Tether
SciTegic.value.DoubleValue
0.000

@<TRIPOS>MOLECULE
guest-s21_confgen4.mol2 : confsearch ligand conformer 236
          22          21           1
SMALL
USER_CHARGES
 
@<TRIPOS>ATOM
       1    C1      17.922050   17.219145   24.101613 C.2        1 MOL1         0.6145
       2    O1      16.934080   17.550627   24.727186 O.co2      1 MOL1        -0.6735
       3    O2      18.915801   16.745665   24.616433 O.co2      1 MOL1        -0.6735
       4    C2      17.899440   17.379326   22.584051 C.3        1 MOL1        -0.1985
       5    H1      16.970676   16.922755   22.222578 H          1 MOL1         0.0740
       6    H2      18.719231   16.791367   22.156317 H          1 MOL1         0.0740
       7    C3      17.968254   18.853597   22.099345 C.3        1 MOL1        -0.1882
       8    H3      17.888968   18.877044   21.004130 H          1 MOL1         0.0742
       9    H4      17.089149   19.389959   22.482511 H          1 MOL1         0.0742
      10    C4      19.243864   19.616667   22.534399 C.3        1 MOL1        -0.1880
      11    H5      19.312906   19.629140   23.630758 H          1 MOL1         0.0742
      12    H6      19.136613   20.662224   22.219274 H          1 MOL1         0.0742
      13    C5      20.546764   19.029117   21.938850 C.3        1 MOL1        -0.1880
      14    H7      20.663662   17.991274   22.276714 H          1 MOL1         0.0742
      15    H8      20.473822   18.996603   20.843351 H          1 MOL1         0.0742
      16    C6      21.816854   19.809711   22.350599 C.3        1 MOL1        -0.1856
      17    H9      22.698760   19.249697   22.010303 H          1 MOL1         0.0742
      18    H10     21.883822   19.857086   23.446342 H          1 MOL1         0.0742
      19    C7      21.879530   21.236125   21.762192 C.3        1 MOL1        -0.2871
      20    H11     21.085251   21.874044   22.169046 H          1 MOL1         0.0754
      21    H12     21.779353   21.215048   20.669206 H          1 MOL1         0.0754
      22    H13     22.840330   21.708589   22.004141 H          1 MOL1         0.0754
@<TRIPOS>BOND
    1     1     2    1
    2     1     3    2
    3     1     4    1
    4     4     5    1
    5     4     6    1
    6     4     7    1
    7     7     8    1
    8     7     9    1
    9     7    10    1
   10    10    11    1
   11    10    12    1
   12    10    13    1
   13    13    14    1
   14    13    15    1
   15    13    16    1
   16    16    17    1
   17    16    18    1
   18    16    19    1
   19    19    20    1
   20    19    21    1
   21    19    22    1
@<TRIPOS>SUBSTRUCTURE
       1 MOL1            1 RESIDUE      1      MOL     
@<SCITEGIC>MOL_PROPERTY
VConf Rank
SciTegic.value.IntegerValue
236

@<SCITEGIC>MOL_PROPERTY
Conf_Id
SciTegic.value.IntegerValue
70

@<SCITEGIC>MOL_PROPERTY
Delta U+W
SciTegic.value.DoubleValue
1.803

@<SCITEGIC>MOL_PROPERTY
U+W
SciTegic.value.DoubleValue
-51.356

@<SCITEGIC>MOL_PROPERTY
Grad RMS
SciTegic.value.DoubleValue
0.000000

@<SCITEGIC>MOL_PROPERTY
U
SciTegic.value.DoubleValue
10.428

@<SCITEGIC>MOL_PROPERTY
W
SciTegic.value.DoubleValue
-61.784

@<SCITEGIC>MOL_PROPERTY
W(PB)
SciTegic.value.DoubleValue
-64.014

@<SCITEGIC>MOL_PROPERTY
W(SA)
SciTegic.value.DoubleValue
2.230

@<SCITEGIC>MOL_PROPERTY
Valence
SciTegic.value.DoubleValue
8.445

@<SCITEGIC>MOL_PROPERTY
Coulomb
SciTegic.value.DoubleValue
1.306

@<SCITEGIC>MOL_PROPERTY
VdW
SciTegic.value.DoubleValue
0.676

@<SCITEGIC>MOL_PROPERTY
VdW6
SciTegic.value.DoubleValue
-8.929

@<SCITEGIC>MOL_PROPERTY
VdW12
SciTegic.value.DoubleValue
9.605

@<SCITEGIC>MOL_PROPERTY
Bond
SciTegic.value.DoubleValue
0.209

@<SCITEGIC>MOL_PROPERTY
Angle
SciTegic.value.DoubleValue
3.066

@<SCITEGIC>MOL_PROPERTY
Pdih
SciTegic.value.DoubleValue
5.170

@<SCITEGIC>MOL_PROPERTY
Idih
SciTegic.value.DoubleValue
0.001

@<SCITEGIC>MOL_PROPERTY
Tether
SciTegic.value.DoubleValue
0.000

@<TRIPOS>MOLECULE
guest-s21_confgen4.mol2 : confsearch ligand conformer 237
          22          21           1
SMALL
USER_CHARGES
 
@<TRIPOS>ATOM
       1    C1      19.011618   16.294105   20.602902 C.2        1 MOL1         0.6145
       2    O1      20.102825   15.918393   20.222088 O.co2      1 MOL1        -0.6735
       3    O2      18.088329   16.546370   19.854051 O.co2      1 MOL1        -0.6735
       4    C2      18.784032   16.435983   22.105291 C.3        1 MOL1        -0.1985
       5    H1      19.201430   15.543601   22.586407 H          1 MOL1         0.0740
       6    H2      17.704494   16.424957   22.298462 H          1 MOL1         0.0740
       7    C3      19.426502   17.705457   22.722259 C.3        1 MOL1        -0.1882
       8    H3      19.327922   17.660010   23.815183 H          1 MOL1         0.0742
       9    H4      20.501700   17.703732   22.499600 H          1 MOL1         0.0742
      10    C4      18.774836   19.009934   22.204345 C.3        1 MOL1        -0.1880
      11    H5      17.688679   18.951780   22.358363 H          1 MOL1         0.0742
      12    H6      18.928889   19.099157   21.120089 H          1 MOL1         0.0742
      13    C5      19.303107   20.283365   22.906365 C.3        1 MOL1        -0.1880
      14    H7      18.704198   21.140364   22.569094 H          1 MOL1         0.0742
      15    H8      19.143090   20.199957   23.990017 H          1 MOL1         0.0742
      16    C6      20.794426   20.570199   22.620254 C.3        1 MOL1        -0.1856
      17    H9      20.964173   20.601037   21.535126 H          1 MOL1         0.0742
      18    H10     21.418878   19.760191   23.019385 H          1 MOL1         0.0742
      19    C7      21.243891   21.905340   23.247242 C.3        1 MOL1        -0.2871
      20    H11     20.664978   22.745162   22.841153 H          1 MOL1         0.0754
      21    H12     22.305060   22.092976   23.038024 H          1 MOL1         0.0754
      22    H13     21.110392   21.891728   24.336906 H          1 MOL1         0.0754
@<TRIPOS>BOND
    1     1     2    1
    2     1     3    2
    3     1     4    1
    4     4     5    1
    5     4     6    1
    6     4     7    1
    7     7     8    1
    8     7     9    1
    9     7    10    1
   10    10    11    1
   11    10    12    1
   12    10    13    1
   13    13    14    1
   14    13    15    1
   15    13    16    1
   16    16    17    1
   17    16    18    1
   18    16    19    1
   19    19    20    1
   20    19    21    1
   21    19    22    1
@<TRIPOS>SUBSTRUCTURE
       1 MOL1            1 RESIDUE      1      MOL     
@<SCITEGIC>MOL_PROPERTY
VConf Rank
SciTegic.value.IntegerValue
237

@<SCITEGIC>MOL_PROPERTY
Conf_Id
SciTegic.value.IntegerValue
85

@<SCITEGIC>MOL_PROPERTY
Delta U+W
SciTegic.value.DoubleValue
0.707

@<SCITEGIC>MOL_PROPERTY
U+W
SciTegic.value.DoubleValue
-52.452

@<SCITEGIC>MOL_PROPERTY
Grad RMS
SciTegic.value.DoubleValue
0.000000

@<SCITEGIC>MOL_PROPERTY
U
SciTegic.value.DoubleValue
8.925

@<SCITEGIC>MOL_PROPERTY
W
SciTegic.value.DoubleValue
-61.378

@<SCITEGIC>MOL_PROPERTY
W(PB)
SciTegic.value.DoubleValue
-63.661

@<SCITEGIC>MOL_PROPERTY
W(SA)
SciTegic.value.DoubleValue
2.283

@<SCITEGIC>MOL_PROPERTY
Valence
SciTegic.value.DoubleValue
7.881

@<SCITEGIC>MOL_PROPERTY
Coulomb
SciTegic.value.DoubleValue
0.349

@<SCITEGIC>MOL_PROPERTY
VdW
SciTegic.value.DoubleValue
0.695

@<SCITEGIC>MOL_PROPERTY
VdW6
SciTegic.value.DoubleValue
-8.049

@<SCITEGIC>MOL_PROPERTY
VdW12
SciTegic.value.DoubleValue
8.743

@<SCITEGIC>MOL_PROPERTY
Bond
SciTegic.value.DoubleValue
0.156

@<SCITEGIC>MOL_PROPERTY
Angle
SciTegic.value.DoubleValue
2.660

@<SCITEGIC>MOL_PROPERTY
Pdih
SciTegic.value.DoubleValue
5.064

@<SCITEGIC>MOL_PROPERTY
Idih
SciTegic.value.DoubleValue
0.001

@<SCITEGIC>MOL_PROPERTY
Tether
SciTegic.value.DoubleValue
0.000

@<TRIPOS>MOLECULE
guest-s21_confgen4.mol2 : confsearch ligand conformer 238
          22          21           1
SMALL
USER_CHARGES
 
@<TRIPOS>ATOM
       1    C1      17.593791   16.619885   21.442969 C.2        1 MOL1         0.6145
       2    O1      17.814225   16.172562   20.334704 O.co2      1 MOL1        -0.6735
       3    O2      17.323783   15.928485   22.405276 O.co2      1 MOL1        -0.6735
       4    C2      17.634979   18.133606   21.633621 C.3        1 MOL1        -0.1985
       5    H1      16.743753   18.414974   22.206804 H          1 MOL1         0.0740
       6    H2      17.545417   18.613620   20.651572 H          1 MOL1         0.0740
       7    C3      18.903011   18.645043   22.365889 C.3        1 MOL1        -0.1882
       8    H3      18.765441   19.709868   22.592004 H          1 MOL1         0.0742
       9    H4      19.005826   18.121890   23.326627 H          1 MOL1         0.0742
      10    C4      20.189044   18.462634   21.526884 C.3        1 MOL1        -0.1880
      11    H5      20.112096   19.058267   20.607101 H          1 MOL1         0.0742
      12    H6      20.265796   17.414325   21.207509 H          1 MOL1         0.0742
      13    C5      21.494312   18.834751   22.274097 C.3        1 MOL1        -0.1880
      14    H7      21.628371   18.180384   23.146312 H          1 MOL1         0.0742
      15    H8      22.334068   18.611129   21.602034 H          1 MOL1         0.0742
      16    C6      21.598958   20.321348   22.697162 C.3        1 MOL1        -0.1856
      17    H9      21.011476   20.953559   22.017175 H          1 MOL1         0.0742
      18    H10     22.643442   20.644623   22.588326 H          1 MOL1         0.0742
      19    C7      21.173323   20.569114   24.161565 C.3        1 MOL1        -0.2871
      20    H11     20.130895   20.281028   24.338351 H          1 MOL1         0.0754
      21    H12     21.275181   21.631918   24.416305 H          1 MOL1         0.0754
      22    H13     21.804534   19.996333   24.853360 H          1 MOL1         0.0754
@<TRIPOS>BOND
    1     1     2    1
    2     1     3    2
    3     1     4    1
    4     4     5    1
    5     4     6    1
    6     4     7    1
    7     7     8    1
    8     7     9    1
    9     7    10    1
   10    10    11    1
   11    10    12    1
   12    10    13    1
   13    13    14    1
   14    13    15    1
   15    13    16    1
   16    16    17    1
   17    16    18    1
   18    16    19    1
   19    19    20    1
   20    19    21    1
   21    19    22    1
@<TRIPOS>SUBSTRUCTURE
       1 MOL1            1 RESIDUE      1      MOL     
@<SCITEGIC>MOL_PROPERTY
VConf Rank
SciTegic.value.IntegerValue
238

@<SCITEGIC>MOL_PROPERTY
Conf_Id
SciTegic.value.IntegerValue
82

@<SCITEGIC>MOL_PROPERTY
Delta U+W
SciTegic.value.DoubleValue
3.438

@<SCITEGIC>MOL_PROPERTY
U+W
SciTegic.value.DoubleValue
-49.721

@<SCITEGIC>MOL_PROPERTY
Grad RMS
SciTegic.value.DoubleValue
0.000000

@<SCITEGIC>MOL_PROPERTY
U
SciTegic.value.DoubleValue
11.773

@<SCITEGIC>MOL_PROPERTY
W
SciTegic.value.DoubleValue
-61.495

@<SCITEGIC>MOL_PROPERTY
W(PB)
SciTegic.value.DoubleValue
-63.749

@<SCITEGIC>MOL_PROPERTY
W(SA)
SciTegic.value.DoubleValue
2.254

@<SCITEGIC>MOL_PROPERTY
Valence
SciTegic.value.DoubleValue
10.419

@<SCITEGIC>MOL_PROPERTY
Coulomb
SciTegic.value.DoubleValue
0.565

@<SCITEGIC>MOL_PROPERTY
VdW
SciTegic.value.DoubleValue
0.789

@<SCITEGIC>MOL_PROPERTY
VdW6
SciTegic.value.DoubleValue
-8.847

@<SCITEGIC>MOL_PROPERTY
VdW12
SciTegic.value.DoubleValue
9.636

@<SCITEGIC>MOL_PROPERTY
Bond
SciTegic.value.DoubleValue
0.200

@<SCITEGIC>MOL_PROPERTY
Angle
SciTegic.value.DoubleValue
3.187

@<SCITEGIC>MOL_PROPERTY
Pdih
SciTegic.value.DoubleValue
7.032

@<SCITEGIC>MOL_PROPERTY
Idih
SciTegic.value.DoubleValue
0.001

@<SCITEGIC>MOL_PROPERTY
Tether
SciTegic.value.DoubleValue
0.000

@<TRIPOS>MOLECULE
guest-s21_confgen4.mol2 : confsearch ligand conformer 239
          22          21           1
SMALL
USER_CHARGES
 
@<TRIPOS>ATOM
       1    C1      21.407199   15.980903   21.749449 C.2        1 MOL1         0.6145
       2    O1      22.193850   16.142012   20.837201 O.co2      1 MOL1        -0.6735
       3    O2      21.670834   15.364791   22.763275 O.co2      1 MOL1        -0.6735
       4    C2      20.004959   16.565124   21.601772 C.3        1 MOL1        -0.1985
       5    H1      19.337699   16.059607   22.310344 H          1 MOL1         0.0740
       6    H2      19.649981   16.312079   20.595815 H          1 MOL1         0.0740
       7    C3      19.934925   18.101427   21.803166 C.3        1 MOL1        -0.1882
       8    H3      20.642259   18.591835   21.120190 H          1 MOL1         0.0742
       9    H4      18.929576   18.440907   21.524002 H          1 MOL1         0.0742
      10    C4      20.231023   18.524692   23.260648 C.3        1 MOL1        -0.1880
      11    H5      21.189317   18.089281   23.575179 H          1 MOL1         0.0742
      12    H6      19.467907   18.099002   23.926338 H          1 MOL1         0.0742
      13    C5      20.305301   20.057287   23.475507 C.3        1 MOL1        -0.1880
      14    H7      20.574761   20.230134   24.526403 H          1 MOL1         0.0742
      15    H8      21.128031   20.480959   22.883440 H          1 MOL1         0.0742
      16    C6      18.987553   20.818225   23.184971 C.3        1 MOL1        -0.1856
      17    H9      18.886991   21.636218   23.911658 H          1 MOL1         0.0742
      18    H10     18.123262   20.159195   23.345884 H          1 MOL1         0.0742
      19    C7      18.938031   21.430951   21.767530 C.3        1 MOL1        -0.2871
      20    H11     19.757337   22.147244   21.623494 H          1 MOL1         0.0754
      21    H12     17.992716   21.967267   21.614028 H          1 MOL1         0.0754
      22    H13     19.018457   20.664744   20.988195 H          1 MOL1         0.0754
@<TRIPOS>BOND
    1     1     2    1
    2     1     3    2
    3     1     4    1
    4     4     5    1
    5     4     6    1
    6     4     7    1
    7     7     8    1
    8     7     9    1
    9     7    10    1
   10    10    11    1
   11    10    12    1
   12    10    13    1
   13    13    14    1
   14    13    15    1
   15    13    16    1
   16    16    17    1
   17    16    18    1
   18    16    19    1
   19    19    20    1
   20    19    21    1
   21    19    22    1
@<TRIPOS>SUBSTRUCTURE
       1 MOL1            1 RESIDUE      1      MOL     
@<SCITEGIC>MOL_PROPERTY
VConf Rank
SciTegic.value.IntegerValue
239

@<SCITEGIC>MOL_PROPERTY
Conf_Id
SciTegic.value.IntegerValue
94

@<SCITEGIC>MOL_PROPERTY
Delta U+W
SciTegic.value.DoubleValue
3.471

@<SCITEGIC>MOL_PROPERTY
U+W
SciTegic.value.DoubleValue
-49.688

@<SCITEGIC>MOL_PROPERTY
Grad RMS
SciTegic.value.DoubleValue
0.000000

@<SCITEGIC>MOL_PROPERTY
U
SciTegic.value.DoubleValue
11.773

@<SCITEGIC>MOL_PROPERTY
W
SciTegic.value.DoubleValue
-61.461

@<SCITEGIC>MOL_PROPERTY
W(PB)
SciTegic.value.DoubleValue
-63.710

@<SCITEGIC>MOL_PROPERTY
W(SA)
SciTegic.value.DoubleValue
2.248

@<SCITEGIC>MOL_PROPERTY
Valence
SciTegic.value.DoubleValue
10.419

@<SCITEGIC>MOL_PROPERTY
Coulomb
SciTegic.value.DoubleValue
0.566

@<SCITEGIC>MOL_PROPERTY
VdW
SciTegic.value.DoubleValue
0.789

@<SCITEGIC>MOL_PROPERTY
VdW6
SciTegic.value.DoubleValue
-8.847

@<SCITEGIC>MOL_PROPERTY
VdW12
SciTegic.value.DoubleValue
9.636

@<SCITEGIC>MOL_PROPERTY
Bond
SciTegic.value.DoubleValue
0.200

@<SCITEGIC>MOL_PROPERTY
Angle
SciTegic.value.DoubleValue
3.187

@<SCITEGIC>MOL_PROPERTY
Pdih
SciTegic.value.DoubleValue
7.032

@<SCITEGIC>MOL_PROPERTY
Idih
SciTegic.value.DoubleValue
0.001

@<SCITEGIC>MOL_PROPERTY
Tether
SciTegic.value.DoubleValue
0.000

@<TRIPOS>MOLECULE
guest-s21_confgen4.mol2 : confsearch ligand conformer 240
          22          21           1
SMALL
USER_CHARGES
 
@<TRIPOS>ATOM
       1    C1      19.397427   19.447095   19.090311 C.2        1 MOL1         0.6145
       2    O1      19.623539   20.373947   18.337637 O.co2      1 MOL1        -0.6735
       3    O2      18.520840   18.626756   18.902657 O.co2      1 MOL1        -0.6735
       4    C2      20.247950   19.317977   20.348831 C.3        1 MOL1        -0.1985
       5    H1      21.253503   19.690883   20.120717 H          1 MOL1         0.0740
       6    H2      20.340889   18.250928   20.580787 H          1 MOL1         0.0740
       7    C3      19.653295   20.087443   21.556623 C.3        1 MOL1        -0.1882
       8    H3      19.496085   21.134991   21.265030 H          1 MOL1         0.0742
       9    H4      18.659278   19.686151   21.794782 H          1 MOL1         0.0742
      10    C4      20.556172   20.055289   22.815271 C.3        1 MOL1        -0.1880
      11    H5      20.090540   20.663465   23.601899 H          1 MOL1         0.0742
      12    H6      21.508136   20.550793   22.581207 H          1 MOL1         0.0742
      13    C5      20.859455   18.640203   23.374483 C.3        1 MOL1        -0.1880
      14    H7      21.468917   18.085547   22.649111 H          1 MOL1         0.0742
      15    H8      21.487001   18.745045   24.269881 H          1 MOL1         0.0742
      16    C6      19.614208   17.793308   23.735117 C.3        1 MOL1        -0.1856
      17    H9      19.950581   16.810352   24.092272 H          1 MOL1         0.0742
      18    H10     19.014375   17.600711   22.835612 H          1 MOL1         0.0742
      19    C7      18.730117   18.441197   24.822511 C.3        1 MOL1        -0.2871
      20    H11     19.314413   18.657629   25.726231 H          1 MOL1         0.0754
      21    H12     17.909858   17.767763   25.102524 H          1 MOL1         0.0754
      22    H13     18.284583   19.378891   24.467284 H          1 MOL1         0.0754
@<TRIPOS>BOND
    1     1     2    1
    2     1     3    2
    3     1     4    1
    4     4     5    1
    5     4     6    1
    6     4     7    1
    7     7     8    1
    8     7     9    1
    9     7    10    1
   10    10    11    1
   11    10    12    1
   12    10    13    1
   13    13    14    1
   14    13    15    1
   15    13    16    1
   16    16    17    1
   17    16    18    1
   18    16    19    1
   19    19    20    1
   20    19    21    1
   21    19    22    1
@<TRIPOS>SUBSTRUCTURE
       1 MOL1            1 RESIDUE      1      MOL     
@<SCITEGIC>MOL_PROPERTY
VConf Rank
SciTegic.value.IntegerValue
240

@<SCITEGIC>MOL_PROPERTY
Conf_Id
SciTegic.value.IntegerValue
56

@<SCITEGIC>MOL_PROPERTY
Delta U+W
SciTegic.value.DoubleValue
0.853

@<SCITEGIC>MOL_PROPERTY
U+W
SciTegic.value.DoubleValue
-52.307

@<SCITEGIC>MOL_PROPERTY
Grad RMS
SciTegic.value.DoubleValue
0.000000

@<SCITEGIC>MOL_PROPERTY
U
SciTegic.value.DoubleValue
8.874

@<SCITEGIC>MOL_PROPERTY
W
SciTegic.value.DoubleValue
-61.181

@<SCITEGIC>MOL_PROPERTY
W(PB)
SciTegic.value.DoubleValue
-63.413

@<SCITEGIC>MOL_PROPERTY
W(SA)
SciTegic.value.DoubleValue
2.232

@<SCITEGIC>MOL_PROPERTY
Valence
SciTegic.value.DoubleValue
8.479

@<SCITEGIC>MOL_PROPERTY
Coulomb
SciTegic.value.DoubleValue
-0.357

@<SCITEGIC>MOL_PROPERTY
VdW
SciTegic.value.DoubleValue
0.753

@<SCITEGIC>MOL_PROPERTY
VdW6
SciTegic.value.DoubleValue
-9.081

@<SCITEGIC>MOL_PROPERTY
VdW12
SciTegic.value.DoubleValue
9.833

@<SCITEGIC>MOL_PROPERTY
Bond
SciTegic.value.DoubleValue
0.221

@<SCITEGIC>MOL_PROPERTY
Angle
SciTegic.value.DoubleValue
3.208

@<SCITEGIC>MOL_PROPERTY
Pdih
SciTegic.value.DoubleValue
5.050

@<SCITEGIC>MOL_PROPERTY
Idih
SciTegic.value.DoubleValue
0.000

@<SCITEGIC>MOL_PROPERTY
Tether
SciTegic.value.DoubleValue
0.000

@<TRIPOS>MOLECULE
guest-s21_confgen4.mol2 : confsearch ligand conformer 241
          22          21           1
SMALL
USER_CHARGES
 
@<TRIPOS>ATOM
       1    C1      19.092028   22.804734   23.168404 C.2        1 MOL1         0.6145
       2    O1      20.109603   23.205510   22.637066 O.co2      1 MOL1        -0.6735
       3    O2      18.307082   23.537819   23.736178 O.co2      1 MOL1        -0.6735
       4    C2      18.756766   21.312693   23.137770 C.3        1 MOL1        -0.1985
       5    H1      17.772275   21.208382   22.666743 H          1 MOL1         0.0740
       6    H2      18.652209   20.979647   24.177056 H          1 MOL1         0.0740
       7    C3      19.788014   20.416873   22.401262 C.3        1 MOL1        -0.1882
       8    H3      19.892586   20.759812   21.362539 H          1 MOL1         0.0742
       9    H4      20.773276   20.530718   22.874325 H          1 MOL1         0.0742
      10    C4      19.372382   18.929769   22.418034 C.3        1 MOL1        -0.1880
      11    H5      18.387178   18.818475   21.944625 H          1 MOL1         0.0742
      12    H6      19.268335   18.589259   23.457437 H          1 MOL1         0.0742
      13    C5      20.399570   18.040471   21.684997 C.3        1 MOL1        -0.1880
      14    H7      20.504007   18.380645   20.645526 H          1 MOL1         0.0742
      15    H8      21.384962   18.151412   22.158095 H          1 MOL1         0.0742
      16    C6      19.984821   16.554261   21.701316 C.3        1 MOL1        -0.1856
      17    H9      19.000340   16.439067   21.226969 H          1 MOL1         0.0742
      18    H10     19.881262   16.209837   22.739643 H          1 MOL1         0.0742
      19    C7      21.013173   15.669592   20.968384 C.3        1 MOL1        -0.2871
      20    H11     21.113663   15.972224   19.917802 H          1 MOL1         0.0754
      21    H12     20.702719   14.616853   20.989605 H          1 MOL1         0.0754
      22    H13     22.001157   15.741222   21.441845 H          1 MOL1         0.0754
@<TRIPOS>BOND
    1     1     2    1
    2     1     3    2
    3     1     4    1
    4     4     5    1
    5     4     6    1
    6     4     7    1
    7     7     8    1
    8     7     9    1
    9     7    10    1
   10    10    11    1
   11    10    12    1
   12    10    13    1
   13    13    14    1
   14    13    15    1
   15    13    16    1
   16    16    17    1
   17    16    18    1
   18    16    19    1
   19    19    20    1
   20    19    21    1
   21    19    22    1
@<TRIPOS>SUBSTRUCTURE
       1 MOL1            1 RESIDUE      1      MOL     
@<SCITEGIC>MOL_PROPERTY
VConf Rank
SciTegic.value.IntegerValue
241

@<SCITEGIC>MOL_PROPERTY
Conf_Id
SciTegic.value.IntegerValue
0

@<SCITEGIC>MOL_PROPERTY
Delta U+W
SciTegic.value.DoubleValue
0.000

@<SCITEGIC>MOL_PROPERTY
U+W
SciTegic.value.DoubleValue
-53.159

@<SCITEGIC>MOL_PROPERTY
Grad RMS
SciTegic.value.DoubleValue
0.000000

@<SCITEGIC>MOL_PROPERTY
U
SciTegic.value.DoubleValue
6.763

@<SCITEGIC>MOL_PROPERTY
W
SciTegic.value.DoubleValue
-59.922

@<SCITEGIC>MOL_PROPERTY
W(PB)
SciTegic.value.DoubleValue
-62.256

@<SCITEGIC>MOL_PROPERTY
W(SA)
SciTegic.value.DoubleValue
2.334

@<SCITEGIC>MOL_PROPERTY
Valence
SciTegic.value.DoubleValue
7.600

@<SCITEGIC>MOL_PROPERTY
Coulomb
SciTegic.value.DoubleValue
-2.139

@<SCITEGIC>MOL_PROPERTY
VdW
SciTegic.value.DoubleValue
1.302

@<SCITEGIC>MOL_PROPERTY
VdW6
SciTegic.value.DoubleValue
-6.786

@<SCITEGIC>MOL_PROPERTY
VdW12
SciTegic.value.DoubleValue
8.088

@<SCITEGIC>MOL_PROPERTY
Bond
SciTegic.value.DoubleValue
0.134

@<SCITEGIC>MOL_PROPERTY
Angle
SciTegic.value.DoubleValue
2.720

@<SCITEGIC>MOL_PROPERTY
Pdih
SciTegic.value.DoubleValue
4.746

@<SCITEGIC>MOL_PROPERTY
Idih
SciTegic.value.DoubleValue
0.000

@<SCITEGIC>MOL_PROPERTY
Tether
SciTegic.value.DoubleValue
0.000

@<TRIPOS>MOLECULE
guest-s21_confgen4.mol2 : confsearch ligand conformer 242
          22          21           1
SMALL
USER_CHARGES
 
@<TRIPOS>ATOM
       1    C1      20.532451   22.902791   22.671212 C.2        1 MOL1         0.6145
       2    O1      20.063709   23.614510   21.805090 O.co2      1 MOL1        -0.6735
       3    O2      21.570569   23.146374   23.253799 O.co2      1 MOL1        -0.6735
       4    C2      19.788394   21.621771   23.031185 C.3        1 MOL1        -0.1985
       5    H1      18.714701   21.803426   22.901389 H          1 MOL1         0.0740
       6    H2      19.956368   21.417802   24.095536 H          1 MOL1         0.0740
       7    C3      20.232172   20.408140   22.177832 C.3        1 MOL1        -0.1882
       8    H3      20.069763   20.633337   21.114590 H          1 MOL1         0.0742
       9    H4      21.311391   20.247723   22.308702 H          1 MOL1         0.0742
      10    C4      19.464733   19.124434   22.561258 C.3        1 MOL1        -0.1880
      11    H5      18.386249   19.288578   22.430483 H          1 MOL1         0.0742
      12    H6      19.628163   18.902885   23.624921 H          1 MOL1         0.0742
      13    C5      19.909216   17.916371   21.709019 C.3        1 MOL1        -0.1880
      14    H7      19.745954   18.137533   20.645271 H          1 MOL1         0.0742
      15    H8      20.987663   17.751901   21.839509 H          1 MOL1         0.0742
      16    C6      19.142651   16.632996   22.091635 C.3        1 MOL1        -0.1856
      17    H9      18.063448   16.792984   21.960476 H          1 MOL1         0.0742
      18    H10     19.305143   16.407354   23.154724 H          1 MOL1         0.0742
      19    C7      19.589373   15.428956   21.238366 C.3        1 MOL1        -0.2871
      20    H11     20.659782   15.226420   21.374793 H          1 MOL1         0.0754
      21    H12     19.408866   15.615046   20.171504 H          1 MOL1         0.0754
      22    H13     19.034520   14.525648   21.523438 H          1 MOL1         0.0754
@<TRIPOS>BOND
    1     1     2    1
    2     1     3    2
    3     1     4    1
    4     4     5    1
    5     4     6    1
    6     4     7    1
    7     7     8    1
    8     7     9    1
    9     7    10    1
   10    10    11    1
   11    10    12    1
   12    10    13    1
   13    13    14    1
   14    13    15    1
   15    13    16    1
   16    16    17    1
   17    16    18    1
   18    16    19    1
   19    19    20    1
   20    19    21    1
   21    19    22    1
@<TRIPOS>SUBSTRUCTURE
       1 MOL1            1 RESIDUE      1      MOL     
@<SCITEGIC>MOL_PROPERTY
VConf Rank
SciTegic.value.IntegerValue
242

@<SCITEGIC>MOL_PROPERTY
Conf_Id
SciTegic.value.IntegerValue
10

@<SCITEGIC>MOL_PROPERTY
Delta U+W
SciTegic.value.DoubleValue
-1.291

@<SCITEGIC>MOL_PROPERTY
U+W
SciTegic.value.DoubleValue
-54.451

@<SCITEGIC>MOL_PROPERTY
Grad RMS
SciTegic.value.DoubleValue
0.000000

@<SCITEGIC>MOL_PROPERTY
U
SciTegic.value.DoubleValue
5.779

@<SCITEGIC>MOL_PROPERTY
W
SciTegic.value.DoubleValue
-60.230

@<SCITEGIC>MOL_PROPERTY
W(PB)
SciTegic.value.DoubleValue
-62.557

@<SCITEGIC>MOL_PROPERTY
W(SA)
SciTegic.value.DoubleValue
2.328

@<SCITEGIC>MOL_PROPERTY
Valence
SciTegic.value.DoubleValue
7.101

@<SCITEGIC>MOL_PROPERTY
Coulomb
SciTegic.value.DoubleValue
-2.079

@<SCITEGIC>MOL_PROPERTY
VdW
SciTegic.value.DoubleValue
0.757

@<SCITEGIC>MOL_PROPERTY
VdW6
SciTegic.value.DoubleValue
-6.496

@<SCITEGIC>MOL_PROPERTY
VdW12
SciTegic.value.DoubleValue
7.253

@<SCITEGIC>MOL_PROPERTY
Bond
SciTegic.value.DoubleValue
0.100

@<SCITEGIC>MOL_PROPERTY
Angle
SciTegic.value.DoubleValue
2.262

@<SCITEGIC>MOL_PROPERTY
Pdih
SciTegic.value.DoubleValue
4.738

@<SCITEGIC>MOL_PROPERTY
Idih
SciTegic.value.DoubleValue
0.001

@<SCITEGIC>MOL_PROPERTY
Tether
SciTegic.value.DoubleValue
0.000

@<TRIPOS>MOLECULE
guest-s21_confgen4.mol2 : confsearch ligand conformer 243
          22          21           1
SMALL
USER_CHARGES
 
@<TRIPOS>ATOM
       1    C1      19.687782   15.093021   21.653984 C.2        1 MOL1         0.6145
       2    O1      20.579463   14.491266   22.219006 O.co2      1 MOL1        -0.6735
       3    O2      18.605243   14.605338   21.395659 O.co2      1 MOL1        -0.6735
       4    C2      19.933364   16.546903   21.266526 C.3        1 MOL1        -0.1985
       5    H1      19.371127   16.754479   20.348132 H          1 MOL1         0.0740
       6    H2      20.997654   16.660814   21.027847 H          1 MOL1         0.0740
       7    C3      19.525585   17.543470   22.379504 C.3        1 MOL1        -0.1882
       8    H3      18.461125   17.407247   22.615894 H          1 MOL1         0.0742
       9    H4      20.087792   17.314573   23.295518 H          1 MOL1         0.0742
      10    C4      19.783983   19.007734   21.962965 C.3        1 MOL1        -0.1880
      11    H5      19.219164   19.234291   21.048358 H          1 MOL1         0.0742
      12    H6      20.847992   19.130882   21.722370 H          1 MOL1         0.0742
      13    C5      19.378759   19.998292   23.078693 C.3        1 MOL1        -0.1880
      14    H7      18.331999   19.814478   23.356976 H          1 MOL1         0.0742
      15    H8      19.978255   19.807121   23.979244 H          1 MOL1         0.0742
      16    C6      19.523733   21.481621   22.666355 C.3        1 MOL1        -0.1856
      17    H9      19.107283   22.111562   23.464466 H          1 MOL1         0.0742
      18    H10     18.920339   21.678171   21.769364 H          1 MOL1         0.0742
      19    C7      20.986563   21.905128   22.411439 C.3        1 MOL1        -0.2871
      20    H11     21.044555   22.982636   22.210111 H          1 MOL1         0.0754
      21    H12     21.409891   21.382413   21.544683 H          1 MOL1         0.0754
      22    H13     21.615771   21.690203   23.284960 H          1 MOL1         0.0754
@<TRIPOS>BOND
    1     1     2    1
    2     1     3    2
    3     1     4    1
    4     4     5    1
    5     4     6    1
    6     4     7    1
    7     7     8    1
    8     7     9    1
    9     7    10    1
   10    10    11    1
   11    10    12    1
   12    10    13    1
   13    13    14    1
   14    13    15    1
   15    13    16    1
   16    16    17    1
   17    16    18    1
   18    16    19    1
   19    19    20    1
   20    19    21    1
   21    19    22    1
@<TRIPOS>SUBSTRUCTURE
       1 MOL1            1 RESIDUE      1      MOL     
@<SCITEGIC>MOL_PROPERTY
VConf Rank
SciTegic.value.IntegerValue
243

@<SCITEGIC>MOL_PROPERTY
Conf_Id
SciTegic.value.IntegerValue
37

@<SCITEGIC>MOL_PROPERTY
Delta U+W
SciTegic.value.DoubleValue
-0.345

@<SCITEGIC>MOL_PROPERTY
U+W
SciTegic.value.DoubleValue
-53.504

@<SCITEGIC>MOL_PROPERTY
Grad RMS
SciTegic.value.DoubleValue
0.000000

@<SCITEGIC>MOL_PROPERTY
U
SciTegic.value.DoubleValue
6.751

@<SCITEGIC>MOL_PROPERTY
W
SciTegic.value.DoubleValue
-60.255

@<SCITEGIC>MOL_PROPERTY
W(PB)
SciTegic.value.DoubleValue
-62.592

@<SCITEGIC>MOL_PROPERTY
W(SA)
SciTegic.value.DoubleValue
2.336

@<SCITEGIC>MOL_PROPERTY
Valence
SciTegic.value.DoubleValue
7.602

@<SCITEGIC>MOL_PROPERTY
Coulomb
SciTegic.value.DoubleValue
-1.744

@<SCITEGIC>MOL_PROPERTY
VdW
SciTegic.value.DoubleValue
0.894

@<SCITEGIC>MOL_PROPERTY
VdW6
SciTegic.value.DoubleValue
-7.110

@<SCITEGIC>MOL_PROPERTY
VdW12
SciTegic.value.DoubleValue
8.004

@<SCITEGIC>MOL_PROPERTY
Bond
SciTegic.value.DoubleValue
0.131

@<SCITEGIC>MOL_PROPERTY
Angle
SciTegic.value.DoubleValue
2.489

@<SCITEGIC>MOL_PROPERTY
Pdih
SciTegic.value.DoubleValue
4.982

@<SCITEGIC>MOL_PROPERTY
Idih
SciTegic.value.DoubleValue
0.001

@<SCITEGIC>MOL_PROPERTY
Tether
SciTegic.value.DoubleValue
0.000

@<TRIPOS>MOLECULE
guest-s21_confgen4.mol2 : confsearch ligand conformer 244
          22          21           1
SMALL
USER_CHARGES
 
@<TRIPOS>ATOM
       1    C1      18.757925   22.132775   20.149437 C.2        1 MOL1         0.6145
       2    O1      19.694742   22.643012   19.567644 O.co2      1 MOL1        -0.6735
       3    O2      17.767359   22.744818   20.496768 O.co2      1 MOL1        -0.6735
       4    C2      18.839344   20.646995   20.481161 C.3        1 MOL1        -0.1985
       5    H1      19.412010   20.151644   19.687853 H          1 MOL1         0.0740
       6    H2      17.823284   20.235328   20.452916 H          1 MOL1         0.0740
       7    C3      19.488837   20.372890   21.859994 C.3        1 MOL1        -0.1882
       8    H3      20.500430   20.801792   21.876432 H          1 MOL1         0.0742
       9    H4      18.911591   20.886700   22.641210 H          1 MOL1         0.0742
      10    C4      19.559333   18.862286   22.172170 C.3        1 MOL1        -0.1880
      11    H5      20.131433   18.358065   21.382467 H          1 MOL1         0.0742
      12    H6      18.546634   18.436758   22.157251 H          1 MOL1         0.0742
      13    C5      20.211931   18.593819   23.547781 C.3        1 MOL1        -0.1880
      14    H7      21.242961   18.973178   23.548841 H          1 MOL1         0.0742
      15    H8      19.670748   19.161550   24.317026 H          1 MOL1         0.0742
      16    C6      20.210223   17.100143   23.948082 C.3        1 MOL1        -0.1856
      17    H9      19.179777   16.718764   23.954392 H          1 MOL1         0.0742
      18    H10     20.580209   17.011130   24.978820 H          1 MOL1         0.0742
      19    C7      21.084305   16.219819   23.028723 C.3        1 MOL1        -0.2871
      20    H11     22.113154   16.599964   22.982948 H          1 MOL1         0.0754
      21    H12     20.683815   16.185325   22.007879 H          1 MOL1         0.0754
      22    H13     21.121180   15.189592   23.405808 H          1 MOL1         0.0754
@<TRIPOS>BOND
    1     1     2    1
    2     1     3    2
    3     1     4    1
    4     4     5    1
    5     4     6    1
    6     4     7    1
    7     7     8    1
    8     7     9    1
    9     7    10    1
   10    10    11    1
   11    10    12    1
   12    10    13    1
   13    13    14    1
   14    13    15    1
   15    13    16    1
   16    16    17    1
   17    16    18    1
   18    16    19    1
   19    19    20    1
   20    19    21    1
   21    19    22    1
@<TRIPOS>SUBSTRUCTURE
       1 MOL1            1 RESIDUE      1      MOL     
@<SCITEGIC>MOL_PROPERTY
VConf Rank
SciTegic.value.IntegerValue
244

@<SCITEGIC>MOL_PROPERTY
Conf_Id
SciTegic.value.IntegerValue
38

@<SCITEGIC>MOL_PROPERTY
Delta U+W
SciTegic.value.DoubleValue
-0.439

@<SCITEGIC>MOL_PROPERTY
U+W
SciTegic.value.DoubleValue
-53.598

@<SCITEGIC>MOL_PROPERTY
Grad RMS
SciTegic.value.DoubleValue
0.000000

@<SCITEGIC>MOL_PROPERTY
U
SciTegic.value.DoubleValue
6.751

@<SCITEGIC>MOL_PROPERTY
W
SciTegic.value.DoubleValue
-60.350

@<SCITEGIC>MOL_PROPERTY
W(PB)
SciTegic.value.DoubleValue
-62.659

@<SCITEGIC>MOL_PROPERTY
W(SA)
SciTegic.value.DoubleValue
2.309

@<SCITEGIC>MOL_PROPERTY
Valence
SciTegic.value.DoubleValue
7.602

@<SCITEGIC>MOL_PROPERTY
Coulomb
SciTegic.value.DoubleValue
-1.744

@<SCITEGIC>MOL_PROPERTY
VdW
SciTegic.value.DoubleValue
0.893

@<SCITEGIC>MOL_PROPERTY
VdW6
SciTegic.value.DoubleValue
-7.110

@<SCITEGIC>MOL_PROPERTY
VdW12
SciTegic.value.DoubleValue
8.004

@<SCITEGIC>MOL_PROPERTY
Bond
SciTegic.value.DoubleValue
0.131

@<SCITEGIC>MOL_PROPERTY
Angle
SciTegic.value.DoubleValue
2.489

@<SCITEGIC>MOL_PROPERTY
Pdih
SciTegic.value.DoubleValue
4.981

@<SCITEGIC>MOL_PROPERTY
Idih
SciTegic.value.DoubleValue
0.001

@<SCITEGIC>MOL_PROPERTY
Tether
SciTegic.value.DoubleValue
0.000

@<TRIPOS>MOLECULE
guest-s21_confgen4.mol2 : confsearch ligand conformer 245
          22          21           1
SMALL
USER_CHARGES
 
@<TRIPOS>ATOM
       1    C1      20.288064   16.055933   19.929377 C.2        1 MOL1         0.6145
       2    O1      21.366254   15.576875   19.638567 O.co2      1 MOL1        -0.6735
       3    O2      19.281043   15.897164   19.268140 O.co2      1 MOL1        -0.6735
       4    C2      20.199141   16.922509   21.180548 C.3        1 MOL1        -0.1985
       5    H1      20.923076   16.541004   21.910472 H          1 MOL1         0.0740
       6    H2      19.200514   16.784987   21.609839 H          1 MOL1         0.0740
       7    C3      20.470233   18.422067   20.891676 C.3        1 MOL1        -0.1882
       8    H3      21.435443   18.510769   20.374039 H          1 MOL1         0.0742
       9    H4      19.710082   18.806019   20.197382 H          1 MOL1         0.0742
      10    C4      20.509266   19.302392   22.163771 C.3        1 MOL1        -0.1880
      11    H5      20.845170   20.305570   21.872000 H          1 MOL1         0.0742
      12    H6      21.264153   18.910905   22.859150 H          1 MOL1         0.0742
      13    C5      19.141267   19.406932   22.881874 C.3        1 MOL1        -0.1880
      14    H7      18.386090   19.796746   22.185845 H          1 MOL1         0.0742
      15    H8      18.805579   18.404763   23.176917 H          1 MOL1         0.0742
      16    C6      19.179771   20.290440   24.150750 C.3        1 MOL1        -0.1856
      17    H9      19.942195   19.910510   24.844764 H          1 MOL1         0.0742
      18    H10     18.215774   20.201053   24.670332 H          1 MOL1         0.0742
      19    C7      19.444336   21.782371   23.852758 C.3        1 MOL1        -0.2871
      20    H11     20.449937   21.938143   23.442969 H          1 MOL1         0.0754
      21    H12     19.365672   22.376692   24.772276 H          1 MOL1         0.0754
      22    H13     18.713900   22.174992   23.133428 H          1 MOL1         0.0754
@<TRIPOS>BOND
    1     1     2    1
    2     1     3    2
    3     1     4    1
    4     4     5    1
    5     4     6    1
    6     4     7    1
    7     7     8    1
    8     7     9    1
    9     7    10    1
   10    10    11    1
   11    10    12    1
   12    10    13    1
   13    13    14    1
   14    13    15    1
   15    13    16    1
   16    16    17    1
   17    16    18    1
   18    16    19    1
   19    19    20    1
   20    19    21    1
   21    19    22    1
@<TRIPOS>SUBSTRUCTURE
       1 MOL1            1 RESIDUE      1      MOL     
@<SCITEGIC>MOL_PROPERTY
VConf Rank
SciTegic.value.IntegerValue
245

@<SCITEGIC>MOL_PROPERTY
Conf_Id
SciTegic.value.IntegerValue
60

@<SCITEGIC>MOL_PROPERTY
Delta U+W
SciTegic.value.DoubleValue
0.386

@<SCITEGIC>MOL_PROPERTY
U+W
SciTegic.value.DoubleValue
-52.773

@<SCITEGIC>MOL_PROPERTY
Grad RMS
SciTegic.value.DoubleValue
0.000000

@<SCITEGIC>MOL_PROPERTY
U
SciTegic.value.DoubleValue
7.689

@<SCITEGIC>MOL_PROPERTY
W
SciTegic.value.DoubleValue
-60.463

@<SCITEGIC>MOL_PROPERTY
W(PB)
SciTegic.value.DoubleValue
-62.772

@<SCITEGIC>MOL_PROPERTY
W(SA)
SciTegic.value.DoubleValue
2.309

@<SCITEGIC>MOL_PROPERTY
Valence
SciTegic.value.DoubleValue
8.197

@<SCITEGIC>MOL_PROPERTY
Coulomb
SciTegic.value.DoubleValue
-1.561

@<SCITEGIC>MOL_PROPERTY
VdW
SciTegic.value.DoubleValue
1.053

@<SCITEGIC>MOL_PROPERTY
VdW6
SciTegic.value.DoubleValue
-7.737

@<SCITEGIC>MOL_PROPERTY
VdW12
SciTegic.value.DoubleValue
8.790

@<SCITEGIC>MOL_PROPERTY
Bond
SciTegic.value.DoubleValue
0.181

@<SCITEGIC>MOL_PROPERTY
Angle
SciTegic.value.DoubleValue
2.780

@<SCITEGIC>MOL_PROPERTY
Pdih
SciTegic.value.DoubleValue
5.235

@<SCITEGIC>MOL_PROPERTY
Idih
SciTegic.value.DoubleValue
0.001

@<SCITEGIC>MOL_PROPERTY
Tether
SciTegic.value.DoubleValue
0.000

@<TRIPOS>MOLECULE
guest-s21_confgen4.mol2 : confsearch ligand conformer 246
          22          21           1
SMALL
USER_CHARGES
 
@<TRIPOS>ATOM
       1    C1      18.655856   21.697420   19.959153 C.2        1 MOL1         0.6145
       2    O1      19.593090   22.161837   19.340734 O.co2      1 MOL1        -0.6735
       3    O2      17.590694   22.266468   20.093973 O.co2      1 MOL1        -0.6735
       4    C2      18.833625   20.335813   20.621507 C.3        1 MOL1        -0.1985
       5    H1      19.502978   19.742993   19.988267 H          1 MOL1         0.0740
       6    H2      17.859980   19.831449   20.628472 H          1 MOL1         0.0740
       7    C3      19.392795   20.439523   22.064485 C.3        1 MOL1        -0.1882
       8    H3      20.389325   20.901732   22.040284 H          1 MOL1         0.0742
       9    H4      18.750316   21.118786   22.641779 H          1 MOL1         0.0742
      10    C4      19.463942   19.080992   22.802084 C.3        1 MOL1        -0.1880
      11    H5      18.467941   18.617940   22.817283 H          1 MOL1         0.0742
      12    H6      19.732459   19.276450   23.848040 H          1 MOL1         0.0742
      13    C5      20.488098   18.097905   22.183487 C.3        1 MOL1        -0.1880
      14    H7      20.218987   17.899089   21.138436 H          1 MOL1         0.0742
      15    H8      21.483692   18.561811   22.166614 H          1 MOL1         0.0742
      16    C6      20.562100   16.741950   22.923774 C.3        1 MOL1        -0.1856
      17    H9      21.202549   16.061049   22.346328 H          1 MOL1         0.0742
      18    H10     19.565618   16.279921   22.952897 H          1 MOL1         0.0742
      19    C7      21.125782   16.854459   24.357042 C.3        1 MOL1        -0.2871
      20    H11     22.107675   17.345385   24.355753 H          1 MOL1         0.0754
      21    H12     21.247254   15.857694   24.800463 H          1 MOL1         0.0754
      22    H13     20.454698   17.427214   25.008981 H          1 MOL1         0.0754
@<TRIPOS>BOND
    1     1     2    1
    2     1     3    2
    3     1     4    1
    4     4     5    1
    5     4     6    1
    6     4     7    1
    7     7     8    1
    8     7     9    1
    9     7    10    1
   10    10    11    1
   11    10    12    1
   12    10    13    1
   13    13    14    1
   14    13    15    1
   15    13    16    1
   16    16    17    1
   17    16    18    1
   18    16    19    1
   19    19    20    1
   20    19    21    1
   21    19    22    1
@<TRIPOS>SUBSTRUCTURE
       1 MOL1            1 RESIDUE      1      MOL     
@<SCITEGIC>MOL_PROPERTY
VConf Rank
SciTegic.value.IntegerValue
246

@<SCITEGIC>MOL_PROPERTY
Conf_Id
SciTegic.value.IntegerValue
28

@<SCITEGIC>MOL_PROPERTY
Delta U+W
SciTegic.value.DoubleValue
0.351

@<SCITEGIC>MOL_PROPERTY
U+W
SciTegic.value.DoubleValue
-52.808

@<SCITEGIC>MOL_PROPERTY
Grad RMS
SciTegic.value.DoubleValue
0.000000

@<SCITEGIC>MOL_PROPERTY
U
SciTegic.value.DoubleValue
7.689

@<SCITEGIC>MOL_PROPERTY
W
SciTegic.value.DoubleValue
-60.498

@<SCITEGIC>MOL_PROPERTY
W(PB)
SciTegic.value.DoubleValue
-62.768

@<SCITEGIC>MOL_PROPERTY
W(SA)
SciTegic.value.DoubleValue
2.270

@<SCITEGIC>MOL_PROPERTY
Valence
SciTegic.value.DoubleValue
8.197

@<SCITEGIC>MOL_PROPERTY
Coulomb
SciTegic.value.DoubleValue
-1.561

@<SCITEGIC>MOL_PROPERTY
VdW
SciTegic.value.DoubleValue
1.053

@<SCITEGIC>MOL_PROPERTY
VdW6
SciTegic.value.DoubleValue
-7.737

@<SCITEGIC>MOL_PROPERTY
VdW12
SciTegic.value.DoubleValue
8.791

@<SCITEGIC>MOL_PROPERTY
Bond
SciTegic.value.DoubleValue
0.181

@<SCITEGIC>MOL_PROPERTY
Angle
SciTegic.value.DoubleValue
2.780

@<SCITEGIC>MOL_PROPERTY
Pdih
SciTegic.value.DoubleValue
5.235

@<SCITEGIC>MOL_PROPERTY
Idih
SciTegic.value.DoubleValue
0.001

@<SCITEGIC>MOL_PROPERTY
Tether
SciTegic.value.DoubleValue
0.000

@<TRIPOS>MOLECULE
guest-s21_confgen4.mol2 : confsearch ligand conformer 247
          22          21           1
SMALL
USER_CHARGES
 
@<TRIPOS>ATOM
       1    C1      16.347311   17.904465   21.739571 C.2        1 MOL1         0.6145
       2    O1      15.586851   18.074382   22.671933 O.co2      1 MOL1        -0.6735
       3    O2      16.063794   18.156655   20.585243 O.co2      1 MOL1        -0.6735
       4    C2      17.741360   17.363595   22.036911 C.3        1 MOL1        -0.1985
       5    H1      18.062528   16.759559   21.179799 H          1 MOL1         0.0740
       6    H2      17.668464   16.690086   22.899285 H          1 MOL1         0.0740
       7    C3      18.773735   18.483222   22.317840 C.3        1 MOL1        -0.1882
       8    H3      18.813675   19.154485   21.449923 H          1 MOL1         0.0742
       9    H4      18.433488   19.084089   23.172530 H          1 MOL1         0.0742
      10    C4      20.178452   17.907250   22.611243 C.3        1 MOL1        -0.1880
      11    H5      20.541046   17.350363   21.736376 H          1 MOL1         0.0742
      12    H6      20.102094   17.181123   23.432139 H          1 MOL1         0.0742
      13    C5      21.216276   18.984714   23.005648 C.3        1 MOL1        -0.1880
      14    H7      20.855929   19.539152   23.882962 H          1 MOL1         0.0742
      15    H8      22.141268   18.479744   23.316007 H          1 MOL1         0.0742
      16    C6      21.543708   19.972773   21.863362 C.3        1 MOL1        -0.1856
      17    H9      20.647921   20.545648   21.589979 H          1 MOL1         0.0742
      18    H10     21.853762   19.415459   20.968670 H          1 MOL1         0.0742
      19    C7      22.661936   20.954308   22.268168 C.3        1 MOL1        -0.2871
      20    H11     23.587778   20.416949   22.511928 H          1 MOL1         0.0754
      21    H12     22.366990   21.544968   23.145387 H          1 MOL1         0.0754
      22    H13     22.880529   21.650903   21.448385 H          1 MOL1         0.0754
@<TRIPOS>BOND
    1     1     2    1
    2     1     3    2
    3     1     4    1
    4     4     5    1
    5     4     6    1
    6     4     7    1
    7     7     8    1
    8     7     9    1
    9     7    10    1
   10    10    11    1
   11    10    12    1
   12    10    13    1
   13    13    14    1
   14    13    15    1
   15    13    16    1
   16    16    17    1
   17    16    18    1
   18    16    19    1
   19    19    20    1
   20    19    21    1
   21    19    22    1
@<TRIPOS>SUBSTRUCTURE
       1 MOL1            1 RESIDUE      1      MOL     
@<SCITEGIC>MOL_PROPERTY
VConf Rank
SciTegic.value.IntegerValue
247

@<SCITEGIC>MOL_PROPERTY
Conf_Id
SciTegic.value.IntegerValue
50

@<SCITEGIC>MOL_PROPERTY
Delta U+W
SciTegic.value.DoubleValue
-0.486

@<SCITEGIC>MOL_PROPERTY
U+W
SciTegic.value.DoubleValue
-53.646

@<SCITEGIC>MOL_PROPERTY
Grad RMS
SciTegic.value.DoubleValue
0.000000

@<SCITEGIC>MOL_PROPERTY
U
SciTegic.value.DoubleValue
7.026

@<SCITEGIC>MOL_PROPERTY
W
SciTegic.value.DoubleValue
-60.672

@<SCITEGIC>MOL_PROPERTY
W(PB)
SciTegic.value.DoubleValue
-62.964

@<SCITEGIC>MOL_PROPERTY
W(SA)
SciTegic.value.DoubleValue
2.292

@<SCITEGIC>MOL_PROPERTY
Valence
SciTegic.value.DoubleValue
7.637

@<SCITEGIC>MOL_PROPERTY
Coulomb
SciTegic.value.DoubleValue
-1.488

@<SCITEGIC>MOL_PROPERTY
VdW
SciTegic.value.DoubleValue
0.877

@<SCITEGIC>MOL_PROPERTY
VdW6
SciTegic.value.DoubleValue
-7.165

@<SCITEGIC>MOL_PROPERTY
VdW12
SciTegic.value.DoubleValue
8.043

@<SCITEGIC>MOL_PROPERTY
Bond
SciTegic.value.DoubleValue
0.134

@<SCITEGIC>MOL_PROPERTY
Angle
SciTegic.value.DoubleValue
2.513

@<SCITEGIC>MOL_PROPERTY
Pdih
SciTegic.value.DoubleValue
4.990

@<SCITEGIC>MOL_PROPERTY
Idih
SciTegic.value.DoubleValue
0.001

@<SCITEGIC>MOL_PROPERTY
Tether
SciTegic.value.DoubleValue
0.000

@<TRIPOS>MOLECULE
guest-s21_confgen4.mol2 : confsearch ligand conformer 248
          22          21           1
SMALL
USER_CHARGES
 
@<TRIPOS>ATOM
       1    C1      20.263759   22.422404   20.811137 C.2        1 MOL1         0.6145
       2    O1      20.051925   23.369274   21.542597 O.co2      1 MOL1        -0.6735
       3    O2      19.919682   22.381436   19.646496 O.co2      1 MOL1        -0.6735
       4    C2      20.983034   21.210369   21.392465 C.3        1 MOL1        -0.1985
       5    H1      21.686633   21.565417   22.155030 H          1 MOL1         0.0740
       6    H2      21.576120   20.750209   20.592996 H          1 MOL1         0.0740
       7    C3      20.011796   20.170112   22.003086 C.3        1 MOL1        -0.1882
       8    H3      19.419328   20.648402   22.795250 H          1 MOL1         0.0742
       9    H4      19.306266   19.845520   21.226983 H          1 MOL1         0.0742
      10    C4      20.767020   18.950605   22.580587 C.3        1 MOL1        -0.1880
      11    H5      21.520049   19.304250   23.298115 H          1 MOL1         0.0742
      12    H6      21.317629   18.441249   21.777858 H          1 MOL1         0.0742
      13    C5      19.844108   17.937705   23.298799 C.3        1 MOL1        -0.1880
      14    H7      20.472092   17.177014   23.782444 H          1 MOL1         0.0742
      15    H8      19.296250   18.445778   24.104185 H          1 MOL1         0.0742
      16    C6      18.845146   17.234852   22.352035 C.3        1 MOL1        -0.1856
      17    H9      19.388905   16.771208   21.517430 H          1 MOL1         0.0742
      18    H10     18.155232   17.969575   21.916649 H          1 MOL1         0.0742
      19    C7      18.027620   16.157046   23.092103 C.3        1 MOL1        -0.2871
      20    H11     17.451707   16.598316   23.916112 H          1 MOL1         0.0754
      21    H12     18.684429   15.382325   23.508956 H          1 MOL1         0.0754
      22    H13     17.321136   15.669691   22.407680 H          1 MOL1         0.0754
@<TRIPOS>BOND
    1     1     2    1
    2     1     3    2
    3     1     4    1
    4     4     5    1
    5     4     6    1
    6     4     7    1
    7     7     8    1
    8     7     9    1
    9     7    10    1
   10    10    11    1
   11    10    12    1
   12    10    13    1
   13    13    14    1
   14    13    15    1
   15    13    16    1
   16    16    17    1
   17    16    18    1
   18    16    19    1
   19    19    20    1
   20    19    21    1
   21    19    22    1
@<TRIPOS>SUBSTRUCTURE
       1 MOL1            1 RESIDUE      1      MOL     
@<SCITEGIC>MOL_PROPERTY
VConf Rank
SciTegic.value.IntegerValue
248

@<SCITEGIC>MOL_PROPERTY
Conf_Id
SciTegic.value.IntegerValue
51

@<SCITEGIC>MOL_PROPERTY
Delta U+W
SciTegic.value.DoubleValue
-0.517

@<SCITEGIC>MOL_PROPERTY
U+W
SciTegic.value.DoubleValue
-53.677

@<SCITEGIC>MOL_PROPERTY
Grad RMS
SciTegic.value.DoubleValue
0.000000

@<SCITEGIC>MOL_PROPERTY
U
SciTegic.value.DoubleValue
7.026

@<SCITEGIC>MOL_PROPERTY
W
SciTegic.value.DoubleValue
-60.703

@<SCITEGIC>MOL_PROPERTY
W(PB)
SciTegic.value.DoubleValue
-63.007

@<SCITEGIC>MOL_PROPERTY
W(SA)
SciTegic.value.DoubleValue
2.304

@<SCITEGIC>MOL_PROPERTY
Valence
SciTegic.value.DoubleValue
7.638

@<SCITEGIC>MOL_PROPERTY
Coulomb
SciTegic.value.DoubleValue
-1.488

@<SCITEGIC>MOL_PROPERTY
VdW
SciTegic.value.DoubleValue
0.877

@<SCITEGIC>MOL_PROPERTY
VdW6
SciTegic.value.DoubleValue
-7.165

@<SCITEGIC>MOL_PROPERTY
VdW12
SciTegic.value.DoubleValue
8.042

@<SCITEGIC>MOL_PROPERTY
Bond
SciTegic.value.DoubleValue
0.134

@<SCITEGIC>MOL_PROPERTY
Angle
SciTegic.value.DoubleValue
2.513

@<SCITEGIC>MOL_PROPERTY
Pdih
SciTegic.value.DoubleValue
4.990

@<SCITEGIC>MOL_PROPERTY
Idih
SciTegic.value.DoubleValue
0.001

@<SCITEGIC>MOL_PROPERTY
Tether
SciTegic.value.DoubleValue
0.000

@<TRIPOS>MOLECULE
guest-s21_confgen4.mol2 : confsearch ligand conformer 249
          22          21           1
SMALL
USER_CHARGES
 
@<TRIPOS>ATOM
       1    C1      22.768031   17.330629   23.722484 C.2        1 MOL1         0.6145
       2    O1      23.567066   16.959802   22.885267 O.co2      1 MOL1        -0.6735
       3    O2      23.024674   18.153901   24.578725 O.co2      1 MOL1        -0.6735
       4    C2      21.372385   16.713309   23.707505 C.3        1 MOL1        -0.1985
       5    H1      20.906955   16.875970   24.687210 H          1 MOL1         0.0740
       6    H2      21.494204   15.630080   23.589964 H          1 MOL1         0.0740
       7    C3      20.454464   17.256468   22.581720 C.3        1 MOL1        -0.1882
       8    H3      20.946274   17.111953   21.609665 H          1 MOL1         0.0742
       9    H4      19.529566   16.664353   22.559213 H          1 MOL1         0.0742
      10    C4      20.099731   18.748275   22.772147 C.3        1 MOL1        -0.1880
      11    H5      21.019448   19.349515   22.778529 H          1 MOL1         0.0742
      12    H6      19.620382   18.889464   23.750567 H          1 MOL1         0.0742
      13    C5      19.160624   19.259313   21.658429 C.3        1 MOL1        -0.1880
      14    H7      19.640682   19.117816   20.680354 H          1 MOL1         0.0742
      15    H8      18.238888   18.661468   21.651877 H          1 MOL1         0.0742
      16    C6      18.806549   20.749256   21.847496 C.3        1 MOL1        -0.1856
      17    H9      19.726187   21.350705   21.852764 H          1 MOL1         0.0742
      18    H10     18.324561   20.894435   22.824263 H          1 MOL1         0.0742
      19    C7      17.869181   21.256190   20.733174 C.3        1 MOL1        -0.2871
      20    H11     18.339523   21.151856   19.746618 H          1 MOL1         0.0754
      21    H12     17.627958   22.316564   20.883190 H          1 MOL1         0.0754
      22    H13     16.927299   20.692103   20.725391 H          1 MOL1         0.0754
@<TRIPOS>BOND
    1     1     2    1
    2     1     3    2
    3     1     4    1
    4     4     5    1
    5     4     6    1
    6     4     7    1
    7     7     8    1
    8     7     9    1
    9     7    10    1
   10    10    11    1
   11    10    12    1
   12    10    13    1
   13    13    14    1
   14    13    15    1
   15    13    16    1
   16    16    17    1
   17    16    18    1
   18    16    19    1
   19    19    20    1
   20    19    21    1
   21    19    22    1
@<TRIPOS>SUBSTRUCTURE
       1 MOL1            1 RESIDUE      1      MOL     
@<SCITEGIC>MOL_PROPERTY
VConf Rank
SciTegic.value.IntegerValue
249

@<SCITEGIC>MOL_PROPERTY
Conf_Id
SciTegic.value.IntegerValue
43

@<SCITEGIC>MOL_PROPERTY
Delta U+W
SciTegic.value.DoubleValue
-0.129

@<SCITEGIC>MOL_PROPERTY
U+W
SciTegic.value.DoubleValue
-53.289

@<SCITEGIC>MOL_PROPERTY
Grad RMS
SciTegic.value.DoubleValue
0.000000

@<SCITEGIC>MOL_PROPERTY
U
SciTegic.value.DoubleValue
7.937

@<SCITEGIC>MOL_PROPERTY
W
SciTegic.value.DoubleValue
-61.225

@<SCITEGIC>MOL_PROPERTY
W(PB)
SciTegic.value.DoubleValue
-63.523

@<SCITEGIC>MOL_PROPERTY
W(SA)
SciTegic.value.DoubleValue
2.297

@<SCITEGIC>MOL_PROPERTY
Valence
SciTegic.value.DoubleValue
7.358

@<SCITEGIC>MOL_PROPERTY
Coulomb
SciTegic.value.DoubleValue
-0.022

@<SCITEGIC>MOL_PROPERTY
VdW
SciTegic.value.DoubleValue
0.601

@<SCITEGIC>MOL_PROPERTY
VdW6
SciTegic.value.DoubleValue
-7.363

@<SCITEGIC>MOL_PROPERTY
VdW12
SciTegic.value.DoubleValue
7.964

@<SCITEGIC>MOL_PROPERTY
Bond
SciTegic.value.DoubleValue
0.121

@<SCITEGIC>MOL_PROPERTY
Angle
SciTegic.value.DoubleValue
2.425

@<SCITEGIC>MOL_PROPERTY
Pdih
SciTegic.value.DoubleValue
4.811

@<SCITEGIC>MOL_PROPERTY
Idih
SciTegic.value.DoubleValue
0.000

@<SCITEGIC>MOL_PROPERTY
Tether
SciTegic.value.DoubleValue
0.000

@<TRIPOS>MOLECULE
guest-s21_confgen4.mol2 : confsearch ligand conformer 250
          22          21           1
SMALL
USER_CHARGES
 
@<TRIPOS>ATOM
       1    C1      21.324689   17.027843   24.627266 C.2        1 MOL1         0.6145
       2    O1      20.704152   16.016017   24.888118 O.co2      1 MOL1        -0.6735
       3    O2      21.611330   17.872390   25.452718 O.co2      1 MOL1        -0.6735
       4    C2      21.783968   17.238420   23.187179 C.3        1 MOL1        -0.1985
       5    H1      22.216756   16.292996   22.839458 H          1 MOL1         0.0740
       6    H2      22.593159   17.978751   23.182363 H          1 MOL1         0.0740
       7    C3      20.652018   17.675993   22.221666 C.3        1 MOL1        -0.1882
       8    H3      21.038121   17.668918   21.193358 H          1 MOL1         0.0742
       9    H4      19.837194   16.939551   22.258652 H          1 MOL1         0.0742
      10    C4      20.101830   19.082193   22.549516 C.3        1 MOL1        -0.1880
      11    H5      20.922343   19.812350   22.524128 H          1 MOL1         0.0742
      12    H6      19.697934   19.092619   23.571360 H          1 MOL1         0.0742
      13    C5      18.998849   19.510125   21.557667 C.3        1 MOL1        -0.1880
      14    H7      19.401112   19.503256   20.535319 H          1 MOL1         0.0742
      15    H8      18.178701   18.779515   21.583675 H          1 MOL1         0.0742
      16    C6      18.448373   20.914026   21.884906 C.3        1 MOL1        -0.1856
      17    H9      19.265765   21.647933   21.858206 H          1 MOL1         0.0742
      18    H10     18.043421   20.924226   22.906382 H          1 MOL1         0.0742
      19    C7      17.346761   21.337692   20.892779 C.3        1 MOL1        -0.2871
      20    H11     17.733238   21.366531   19.865550 H          1 MOL1         0.0754
      21    H12     16.966978   22.337508   21.140202 H          1 MOL1         0.0754
      22    H13     16.501696   20.637384   20.921674 H          1 MOL1         0.0754
@<TRIPOS>BOND
    1     1     2    1
    2     1     3    2
    3     1     4    1
    4     4     5    1
    5     4     6    1
    6     4     7    1
    7     7     8    1
    8     7     9    1
    9     7    10    1
   10    10    11    1
   11    10    12    1
   12    10    13    1
   13    13    14    1
   14    13    15    1
   15    13    16    1
   16    16    17    1
   17    16    18    1
   18    16    19    1
   19    19    20    1
   20    19    21    1
   21    19    22    1
@<TRIPOS>SUBSTRUCTURE
       1 MOL1            1 RESIDUE      1      MOL     
@<SCITEGIC>MOL_PROPERTY
VConf Rank
SciTegic.value.IntegerValue
250

@<SCITEGIC>MOL_PROPERTY
Conf_Id
SciTegic.value.IntegerValue
44

@<SCITEGIC>MOL_PROPERTY
Delta U+W
SciTegic.value.DoubleValue
-0.155

@<SCITEGIC>MOL_PROPERTY
U+W
SciTegic.value.DoubleValue
-53.314

@<SCITEGIC>MOL_PROPERTY
Grad RMS
SciTegic.value.DoubleValue
0.000000

@<SCITEGIC>MOL_PROPERTY
U
SciTegic.value.DoubleValue
7.937

@<SCITEGIC>MOL_PROPERTY
W
SciTegic.value.DoubleValue
-61.252

@<SCITEGIC>MOL_PROPERTY
W(PB)
SciTegic.value.DoubleValue
-63.556

@<SCITEGIC>MOL_PROPERTY
W(SA)
SciTegic.value.DoubleValue
2.304

@<SCITEGIC>MOL_PROPERTY
Valence
SciTegic.value.DoubleValue
7.358

@<SCITEGIC>MOL_PROPERTY
Coulomb
SciTegic.value.DoubleValue
-0.021

@<SCITEGIC>MOL_PROPERTY
VdW
SciTegic.value.DoubleValue
0.600

@<SCITEGIC>MOL_PROPERTY
VdW6
SciTegic.value.DoubleValue
-7.363

@<SCITEGIC>MOL_PROPERTY
VdW12
SciTegic.value.DoubleValue
7.964

@<SCITEGIC>MOL_PROPERTY
Bond
SciTegic.value.DoubleValue
0.121

@<SCITEGIC>MOL_PROPERTY
Angle
SciTegic.value.DoubleValue
2.425

@<SCITEGIC>MOL_PROPERTY
Pdih
SciTegic.value.DoubleValue
4.811

@<SCITEGIC>MOL_PROPERTY
Idih
SciTegic.value.DoubleValue
0.001

@<SCITEGIC>MOL_PROPERTY
Tether
SciTegic.value.DoubleValue
0.000

@<TRIPOS>MOLECULE
guest-s21_confgen4.mol2 : confsearch ligand conformer 251
          22          21           1
SMALL
USER_CHARGES
 
@<TRIPOS>ATOM
       1    C1      21.268611   20.417510   19.434823 C.2        1 MOL1         0.6145
       2    O1      22.095406   19.663694   18.960380 O.co2      1 MOL1        -0.6735
       3    O2      21.484807   21.589918   19.670589 O.co2      1 MOL1        -0.6735
       4    C2      19.877658   19.864214   19.732183 C.3        1 MOL1        -0.1985
       5    H1      19.564693   19.279868   18.858899 H          1 MOL1         0.0740
       6    H2      19.177562   20.703922   19.819614 H          1 MOL1         0.0740
       7    C3      19.808410   18.975230   21.001252 C.3        1 MOL1        -0.1882
       8    H3      18.817922   18.504659   21.042026 H          1 MOL1         0.0742
       9    H4      20.543050   18.162493   20.916613 H          1 MOL1         0.0742
      10    C4      20.059249   19.776054   22.301626 C.3        1 MOL1        -0.1880
      11    H5      19.298315   20.561485   22.405929 H          1 MOL1         0.0742
      12    H6      21.026709   20.291216   22.226654 H          1 MOL1         0.0742
      13    C5      20.074551   18.896453   23.574376 C.3        1 MOL1        -0.1880
      14    H7      20.835487   18.111022   23.469537 H          1 MOL1         0.0742
      15    H8      20.386878   19.519663   24.423472 H          1 MOL1         0.0742
      16    C6      18.705955   18.256528   23.899744 C.3        1 MOL1        -0.1856
      17    H9      18.410990   17.565542   23.099276 H          1 MOL1         0.0742
      18    H10     17.934482   19.037191   23.950618 H          1 MOL1         0.0742
      19    C7      18.744940   17.487595   25.235768 C.3        1 MOL1        -0.2871
      20    H11     19.490304   16.682137   25.203300 H          1 MOL1         0.0754
      21    H12     17.767565   17.036534   25.451044 H          1 MOL1         0.0754
      22    H13     18.999512   18.157225   26.067721 H          1 MOL1         0.0754
@<TRIPOS>BOND
    1     1     2    1
    2     1     3    2
    3     1     4    1
    4     4     5    1
    5     4     6    1
    6     4     7    1
    7     7     8    1
    8     7     9    1
    9     7    10    1
   10    10    11    1
   11    10    12    1
   12    10    13    1
   13    13    14    1
   14    13    15    1
   15    13    16    1
   16    16    17    1
   17    16    18    1
   18    16    19    1
   19    19    20    1
   20    19    21    1
   21    19    22    1
@<TRIPOS>SUBSTRUCTURE
       1 MOL1            1 RESIDUE      1      MOL     
@<SCITEGIC>MOL_PROPERTY
VConf Rank
SciTegic.value.IntegerValue
251

@<SCITEGIC>MOL_PROPERTY
Conf_Id
SciTegic.value.IntegerValue
53

@<SCITEGIC>MOL_PROPERTY
Delta U+W
SciTegic.value.DoubleValue
0.723

@<SCITEGIC>MOL_PROPERTY
U+W
SciTegic.value.DoubleValue
-52.436

@<SCITEGIC>MOL_PROPERTY
Grad RMS
SciTegic.value.DoubleValue
0.000000

@<SCITEGIC>MOL_PROPERTY
U
SciTegic.value.DoubleValue
8.587

@<SCITEGIC>MOL_PROPERTY
W
SciTegic.value.DoubleValue
-61.022

@<SCITEGIC>MOL_PROPERTY
W(PB)
SciTegic.value.DoubleValue
-63.285

@<SCITEGIC>MOL_PROPERTY
W(SA)
SciTegic.value.DoubleValue
2.263

@<SCITEGIC>MOL_PROPERTY
Valence
SciTegic.value.DoubleValue
7.933

@<SCITEGIC>MOL_PROPERTY
Coulomb
SciTegic.value.DoubleValue
-0.124

@<SCITEGIC>MOL_PROPERTY
VdW
SciTegic.value.DoubleValue
0.778

@<SCITEGIC>MOL_PROPERTY
VdW6
SciTegic.value.DoubleValue
-7.981

@<SCITEGIC>MOL_PROPERTY
VdW12
SciTegic.value.DoubleValue
8.759

@<SCITEGIC>MOL_PROPERTY
Bond
SciTegic.value.DoubleValue
0.160

@<SCITEGIC>MOL_PROPERTY
Angle
SciTegic.value.DoubleValue
2.698

@<SCITEGIC>MOL_PROPERTY
Pdih
SciTegic.value.DoubleValue
5.074

@<SCITEGIC>MOL_PROPERTY
Idih
SciTegic.value.DoubleValue
0.001

@<SCITEGIC>MOL_PROPERTY
Tether
SciTegic.value.DoubleValue
0.000

@<TRIPOS>MOLECULE
guest-s21_confgen4.mol2 : confsearch ligand conformer 252
          22          21           1
SMALL
USER_CHARGES
 
@<TRIPOS>ATOM
       1    C1      16.685879   19.589950   23.516352 C.2        1 MOL1         0.6145
       2    O1      16.446908   18.813737   24.420208 O.co2      1 MOL1        -0.6735
       3    O2      15.931544   20.480203   23.177221 O.co2      1 MOL1        -0.6735
       4    C2      18.014785   19.453638   22.781895 C.3        1 MOL1        -0.1985
       5    H1      17.868047   19.784989   21.747024 H          1 MOL1         0.0740
       6    H2      18.270570   18.388470   22.755068 H          1 MOL1         0.0740
       7    C3      19.154758   20.264575   23.448211 C.3        1 MOL1        -0.1882
       8    H3      18.815483   21.300565   23.586197 H          1 MOL1         0.0742
       9    H4      19.341113   19.865683   24.454895 H          1 MOL1         0.0742
      10    C4      20.479012   20.284363   22.644082 C.3        1 MOL1        -0.1880
      11    H5      21.186859   20.924019   23.188820 H          1 MOL1         0.0742
      12    H6      20.323202   20.772413   21.672235 H          1 MOL1         0.0742
      13    C5      21.136577   18.894726   22.448565 C.3        1 MOL1        -0.1880
      14    H7      22.227244   19.015117   22.502823 H          1 MOL1         0.0742
      15    H8      20.861503   18.227084   23.276545 H          1 MOL1         0.0742
      16    C6      20.792758   18.239376   21.090972 C.3        1 MOL1        -0.1856
      17    H9      21.125717   18.892777   20.272803 H          1 MOL1         0.0742
      18    H10     19.707714   18.126311   20.980243 H          1 MOL1         0.0742
      19    C7      21.463061   16.858649   20.943946 C.3        1 MOL1        -0.2871
      20    H11     22.555721   16.943038   21.009555 H          1 MOL1         0.0754
      21    H12     21.215437   16.409814   19.973244 H          1 MOL1         0.0754
      22    H13     21.124097   16.172373   21.731022 H          1 MOL1         0.0754
@<TRIPOS>BOND
    1     1     2    1
    2     1     3    2
    3     1     4    1
    4     4     5    1
    5     4     6    1
    6     4     7    1
    7     7     8    1
    8     7     9    1
    9     7    10    1
   10    10    11    1
   11    10    12    1
   12    10    13    1
   13    13    14    1
   14    13    15    1
   15    13    16    1
   16    16    17    1
   17    16    18    1
   18    16    19    1
   19    19    20    1
   20    19    21    1
   21    19    22    1
@<TRIPOS>SUBSTRUCTURE
       1 MOL1            1 RESIDUE      1      MOL     
@<SCITEGIC>MOL_PROPERTY
VConf Rank
SciTegic.value.IntegerValue
252

@<SCITEGIC>MOL_PROPERTY
Conf_Id
SciTegic.value.IntegerValue
5

@<SCITEGIC>MOL_PROPERTY
Delta U+W
SciTegic.value.DoubleValue
2.167

@<SCITEGIC>MOL_PROPERTY
U+W
SciTegic.value.DoubleValue
-50.993

@<SCITEGIC>MOL_PROPERTY
Grad RMS
SciTegic.value.DoubleValue
0.000000

@<SCITEGIC>MOL_PROPERTY
U
SciTegic.value.DoubleValue
10.045

@<SCITEGIC>MOL_PROPERTY
W
SciTegic.value.DoubleValue
-61.037

@<SCITEGIC>MOL_PROPERTY
W(PB)
SciTegic.value.DoubleValue
-63.303

@<SCITEGIC>MOL_PROPERTY
W(SA)
SciTegic.value.DoubleValue
2.266

@<SCITEGIC>MOL_PROPERTY
Valence
SciTegic.value.DoubleValue
10.100

@<SCITEGIC>MOL_PROPERTY
Coulomb
SciTegic.value.DoubleValue
-0.883

@<SCITEGIC>MOL_PROPERTY
VdW
SciTegic.value.DoubleValue
0.828

@<SCITEGIC>MOL_PROPERTY
VdW6
SciTegic.value.DoubleValue
-8.177

@<SCITEGIC>MOL_PROPERTY
VdW12
SciTegic.value.DoubleValue
9.005

@<SCITEGIC>MOL_PROPERTY
Bond
SciTegic.value.DoubleValue
0.182

@<SCITEGIC>MOL_PROPERTY
Angle
SciTegic.value.DoubleValue
2.988

@<SCITEGIC>MOL_PROPERTY
Pdih
SciTegic.value.DoubleValue
6.930

@<SCITEGIC>MOL_PROPERTY
Idih
SciTegic.value.DoubleValue
0.001

@<SCITEGIC>MOL_PROPERTY
Tether
SciTegic.value.DoubleValue
0.000

@<TRIPOS>MOLECULE
guest-s21_confgen4.mol2 : confsearch ligand conformer 253
          22          21           1
SMALL
USER_CHARGES
 
@<TRIPOS>ATOM
       1    C1      20.638819   16.466802   20.190294 C.2        1 MOL1         0.6145
       2    O1      19.618517   16.070333   19.662690 O.co2      1 MOL1        -0.6735
       3    O2      21.732243   15.973893   19.995232 O.co2      1 MOL1        -0.6735
       4    C2      20.538553   17.631974   21.168211 C.3        1 MOL1        -0.1985
       5    H1      19.737675   18.291796   20.816135 H          1 MOL1         0.0740
       6    H2      21.477070   18.197124   21.122700 H          1 MOL1         0.0740
       7    C3      20.258548   17.173359   22.621625 C.3        1 MOL1        -0.1882
       8    H3      19.277740   16.679763   22.662034 H          1 MOL1         0.0742
       9    H4      20.998485   16.409598   22.898364 H          1 MOL1         0.0742
      10    C4      20.310916   18.311314   23.671857 C.3        1 MOL1        -0.1880
      11    H5      21.319380   18.745667   23.707786 H          1 MOL1         0.0742
      12    H6      20.146301   17.857863   24.658888 H          1 MOL1         0.0742
      13    C5      19.252596   19.425326   23.470243 C.3        1 MOL1        -0.1880
      14    H7      18.367623   19.017855   22.962548 H          1 MOL1         0.0742
      15    H8      18.909742   19.762466   24.458060 H          1 MOL1         0.0742
      16    C6      19.794638   20.654563   22.704787 C.3        1 MOL1        -0.1856
      17    H9      20.176509   20.359169   21.720266 H          1 MOL1         0.0742
      18    H10     20.642913   21.085022   23.254632 H          1 MOL1         0.0742
      19    C7      18.706901   21.732147   22.523196 C.3        1 MOL1        -0.2871
      20    H11     17.858248   21.339631   21.947803 H          1 MOL1         0.0754
      21    H12     19.108622   22.600458   21.984968 H          1 MOL1         0.0754
      22    H13     18.331429   22.079453   23.494655 H          1 MOL1         0.0754
@<TRIPOS>BOND
    1     1     2    1
    2     1     3    2
    3     1     4    1
    4     4     5    1
    5     4     6    1
    6     4     7    1
    7     7     8    1
    8     7     9    1
    9     7    10    1
   10    10    11    1
   11    10    12    1
   12    10    13    1
   13    13    14    1
   14    13    15    1
   15    13    16    1
   16    16    17    1
   17    16    18    1
   18    16    19    1
   19    19    20    1
   20    19    21    1
   21    19    22    1
@<TRIPOS>SUBSTRUCTURE
       1 MOL1            1 RESIDUE      1      MOL     
@<SCITEGIC>MOL_PROPERTY
VConf Rank
SciTegic.value.IntegerValue
253

@<SCITEGIC>MOL_PROPERTY
Conf_Id
SciTegic.value.IntegerValue
6

@<SCITEGIC>MOL_PROPERTY
Delta U+W
SciTegic.value.DoubleValue
2.118

@<SCITEGIC>MOL_PROPERTY
U+W
SciTegic.value.DoubleValue
-51.042

@<SCITEGIC>MOL_PROPERTY
Grad RMS
SciTegic.value.DoubleValue
0.000000

@<SCITEGIC>MOL_PROPERTY
U
SciTegic.value.DoubleValue
10.045

@<SCITEGIC>MOL_PROPERTY
W
SciTegic.value.DoubleValue
-61.086

@<SCITEGIC>MOL_PROPERTY
W(PB)
SciTegic.value.DoubleValue
-63.356

@<SCITEGIC>MOL_PROPERTY
W(SA)
SciTegic.value.DoubleValue
2.270

@<SCITEGIC>MOL_PROPERTY
Valence
SciTegic.value.DoubleValue
10.100

@<SCITEGIC>MOL_PROPERTY
Coulomb
SciTegic.value.DoubleValue
-0.883

@<SCITEGIC>MOL_PROPERTY
VdW
SciTegic.value.DoubleValue
0.828

@<SCITEGIC>MOL_PROPERTY
VdW6
SciTegic.value.DoubleValue
-8.177

@<SCITEGIC>MOL_PROPERTY
VdW12
SciTegic.value.DoubleValue
9.004

@<SCITEGIC>MOL_PROPERTY
Bond
SciTegic.value.DoubleValue
0.182

@<SCITEGIC>MOL_PROPERTY
Angle
SciTegic.value.DoubleValue
2.988

@<SCITEGIC>MOL_PROPERTY
Pdih
SciTegic.value.DoubleValue
6.930

@<SCITEGIC>MOL_PROPERTY
Idih
SciTegic.value.DoubleValue
0.001

@<SCITEGIC>MOL_PROPERTY
Tether
SciTegic.value.DoubleValue
0.000

@<TRIPOS>MOLECULE
guest-s21_confgen4.mol2 : confsearch ligand conformer 254
          22          21           1
SMALL
USER_CHARGES
 
@<TRIPOS>ATOM
       1    C1      18.472065   19.910945   24.861023 C.2        1 MOL1         0.6145
       2    O1      18.985707   19.318071   25.789552 O.co2      1 MOL1        -0.6735
       3    O2      17.324912   19.730039   24.502735 O.co2      1 MOL1        -0.6735
       4    C2      19.286256   20.990870   24.150873 C.3        1 MOL1        -0.1985
       5    H1      19.493102   21.763523   24.900375 H          1 MOL1         0.0740
       6    H2      18.661693   21.459913   23.380962 H          1 MOL1         0.0740
       7    C3      20.630752   20.511191   23.534984 C.3        1 MOL1        -0.1882
       8    H3      21.272123   21.391647   23.394056 H          1 MOL1         0.0742
       9    H4      21.159510   19.863449   24.248019 H          1 MOL1         0.0742
      10    C4      20.500536   19.798845   22.165853 C.3        1 MOL1        -0.1880
      11    H5      21.510880   19.648240   21.761504 H          1 MOL1         0.0742
      12    H6      19.978697   20.454967   21.455912 H          1 MOL1         0.0742
      13    C5      19.783790   18.431243   22.232536 C.3        1 MOL1        -0.1880
      14    H7      20.242260   17.812071   23.015784 H          1 MOL1         0.0742
      15    H8      18.731994   18.574426   22.510540 H          1 MOL1         0.0742
      16    C6      19.847466   17.687346   20.881793 C.3        1 MOL1        -0.1856
      17    H9      20.896031   17.528648   20.594251 H          1 MOL1         0.0742
      18    H10     19.390838   18.306197   20.096981 H          1 MOL1         0.0742
      19    C7      19.123907   16.327381   20.947938 C.3        1 MOL1        -0.2871
      20    H11     19.580857   15.676107   21.704514 H          1 MOL1         0.0754
      21    H12     19.177777   15.812631   19.979871 H          1 MOL1         0.0754
      22    H13     18.064332   16.458780   21.203943 H          1 MOL1         0.0754
@<TRIPOS>BOND
    1     1     2    1
    2     1     3    2
    3     1     4    1
    4     4     5    1
    5     4     6    1
    6     4     7    1
    7     7     8    1
    8     7     9    1
    9     7    10    1
   10    10    11    1
   11    10    12    1
   12    10    13    1
   13    13    14    1
   14    13    15    1
   15    13    16    1
   16    16    17    1
   17    16    18    1
   18    16    19    1
   19    19    20    1
   20    19    21    1
   21    19    22    1
@<TRIPOS>SUBSTRUCTURE
       1 MOL1            1 RESIDUE      1      MOL     
@<SCITEGIC>MOL_PROPERTY
VConf Rank
SciTegic.value.IntegerValue
254

@<SCITEGIC>MOL_PROPERTY
Conf_Id
SciTegic.value.IntegerValue
8

@<SCITEGIC>MOL_PROPERTY
Delta U+W
SciTegic.value.DoubleValue
1.886

@<SCITEGIC>MOL_PROPERTY
U+W
SciTegic.value.DoubleValue
-51.274

@<SCITEGIC>MOL_PROPERTY
Grad RMS
SciTegic.value.DoubleValue
0.000000

@<SCITEGIC>MOL_PROPERTY
U
SciTegic.value.DoubleValue
11.237

@<SCITEGIC>MOL_PROPERTY
W
SciTegic.value.DoubleValue
-62.510

@<SCITEGIC>MOL_PROPERTY
W(PB)
SciTegic.value.DoubleValue
-64.777

@<SCITEGIC>MOL_PROPERTY
W(SA)
SciTegic.value.DoubleValue
2.267

@<SCITEGIC>MOL_PROPERTY
Valence
SciTegic.value.DoubleValue
9.029

@<SCITEGIC>MOL_PROPERTY
Coulomb
SciTegic.value.DoubleValue
1.667

@<SCITEGIC>MOL_PROPERTY
VdW
SciTegic.value.DoubleValue
0.540

@<SCITEGIC>MOL_PROPERTY
VdW6
SciTegic.value.DoubleValue
-8.825

@<SCITEGIC>MOL_PROPERTY
VdW12
SciTegic.value.DoubleValue
9.365

@<SCITEGIC>MOL_PROPERTY
Bond
SciTegic.value.DoubleValue
0.186

@<SCITEGIC>MOL_PROPERTY
Angle
SciTegic.value.DoubleValue
3.195

@<SCITEGIC>MOL_PROPERTY
Pdih
SciTegic.value.DoubleValue
5.642

@<SCITEGIC>MOL_PROPERTY
Idih
SciTegic.value.DoubleValue
0.007

@<SCITEGIC>MOL_PROPERTY
Tether
SciTegic.value.DoubleValue
0.000

@<TRIPOS>MOLECULE
guest-s21_confgen4.mol2 : confsearch ligand conformer 255
          22          21           1
SMALL
USER_CHARGES
 
@<TRIPOS>ATOM
       1    C1      21.760939   19.413716   20.215276 C.2        1 MOL1         0.6145
       2    O1      20.858459   19.666269   19.441642 O.co2      1 MOL1        -0.6735
       3    O2      22.686985   18.672940   19.948824 O.co2      1 MOL1        -0.6735
       4    C2      21.748862   20.085471   21.585591 C.3        1 MOL1        -0.1985
       5    H1      21.030929   20.913033   21.565028 H          1 MOL1         0.0740
       6    H2      22.736466   20.537127   21.735147 H          1 MOL1         0.0740
       7    C3      21.442860   19.120535   22.763899 C.3        1 MOL1        -0.1882
       8    H3      22.227222   18.351913   22.800269 H          1 MOL1         0.0742
       9    H4      21.511214   19.673992   23.710125 H          1 MOL1         0.0742
      10    C4      20.064273   18.419446   22.682030 C.3        1 MOL1        -0.1880
      11    H5      20.001555   17.699110   23.507365 H          1 MOL1         0.0742
      12    H6      20.000225   17.834141   21.754539 H          1 MOL1         0.0742
      13    C5      18.868523   19.399972   22.760740 C.3        1 MOL1        -0.1880
      14    H7      18.939601   20.001002   23.677365 H          1 MOL1         0.0742
      15    H8      18.920629   20.103079   21.919396 H          1 MOL1         0.0742
      16    C6      17.492455   18.695924   22.708242 C.3        1 MOL1        -0.1856
      17    H9      17.424850   18.081652   21.799685 H          1 MOL1         0.0742
      18    H10     16.709328   19.461865   22.623266 H          1 MOL1         0.0742
      19    C7      17.199724   17.825012   23.949464 C.3        1 MOL1        -0.2871
      20    H11     17.884255   16.970048   24.011132 H          1 MOL1         0.0754
      21    H12     16.177193   17.428160   23.906628 H          1 MOL1         0.0754
      22    H13     17.295955   18.411421   24.872483 H          1 MOL1         0.0754
@<TRIPOS>BOND
    1     1     2    1
    2     1     3    2
    3     1     4    1
    4     4     5    1
    5     4     6    1
    6     4     7    1
    7     7     8    1
    8     7     9    1
    9     7    10    1
   10    10    11    1
   11    10    12    1
   12    10    13    1
   13    13    14    1
   14    13    15    1
   15    13    16    1
   16    16    17    1
   17    16    18    1
   18    16    19    1
   19    19    20    1
   20    19    21    1
   21    19    22    1
@<TRIPOS>SUBSTRUCTURE
       1 MOL1            1 RESIDUE      1      MOL     
@<SCITEGIC>MOL_PROPERTY
VConf Rank
SciTegic.value.IntegerValue
255

@<SCITEGIC>MOL_PROPERTY
Conf_Id
SciTegic.value.IntegerValue
93

@<SCITEGIC>MOL_PROPERTY
Delta U+W
SciTegic.value.DoubleValue
1.836

@<SCITEGIC>MOL_PROPERTY
U+W
SciTegic.value.DoubleValue
-51.323

@<SCITEGIC>MOL_PROPERTY
Grad RMS
SciTegic.value.DoubleValue
0.000000

@<SCITEGIC>MOL_PROPERTY
U
SciTegic.value.DoubleValue
10.427

@<SCITEGIC>MOL_PROPERTY
W
SciTegic.value.DoubleValue
-61.751

@<SCITEGIC>MOL_PROPERTY
W(PB)
SciTegic.value.DoubleValue
-63.980

@<SCITEGIC>MOL_PROPERTY
W(SA)
SciTegic.value.DoubleValue
2.230

@<SCITEGIC>MOL_PROPERTY
Valence
SciTegic.value.DoubleValue
8.446

@<SCITEGIC>MOL_PROPERTY
Coulomb
SciTegic.value.DoubleValue
1.306

@<SCITEGIC>MOL_PROPERTY
VdW
SciTegic.value.DoubleValue
0.676

@<SCITEGIC>MOL_PROPERTY
VdW6
SciTegic.value.DoubleValue
-8.928

@<SCITEGIC>MOL_PROPERTY
VdW12
SciTegic.value.DoubleValue
9.604

@<SCITEGIC>MOL_PROPERTY
Bond
SciTegic.value.DoubleValue
0.209

@<SCITEGIC>MOL_PROPERTY
Angle
SciTegic.value.DoubleValue
3.066

@<SCITEGIC>MOL_PROPERTY
Pdih
SciTegic.value.DoubleValue
5.170

@<SCITEGIC>MOL_PROPERTY
Idih
SciTegic.value.DoubleValue
0.001

@<SCITEGIC>MOL_PROPERTY
Tether
SciTegic.value.DoubleValue
0.000

@<TRIPOS>MOLECULE
guest-s21_confgen4.mol2 : confsearch ligand conformer 256
          22          21           1
SMALL
USER_CHARGES
 
@<TRIPOS>ATOM
       1    C1      16.869220   17.963251   22.808623 C.2        1 MOL1         0.6145
       2    O1      15.939182   18.536789   23.340965 O.co2      1 MOL1        -0.6735
       3    O2      17.352147   16.930940   23.230383 O.co2      1 MOL1        -0.6735
       4    C2      17.440248   18.557671   21.524195 C.3        1 MOL1        -0.1985
       5    H1      16.595964   18.753381   20.852924 H          1 MOL1         0.0740
       6    H2      18.057935   17.799281   21.030214 H          1 MOL1         0.0740
       7    C3      18.243523   19.870695   21.733638 C.3        1 MOL1        -0.1882
       8    H3      18.565954   20.255723   20.756845 H          1 MOL1         0.0742
       9    H4      17.570620   20.629686   22.156083 H          1 MOL1         0.0742
      10    C4      19.477600   19.731142   22.659009 C.3        1 MOL1        -0.1880
      11    H5      19.160076   19.380151   23.650427 H          1 MOL1         0.0742
      12    H6      19.904326   20.731154   22.806916 H          1 MOL1         0.0742
      13    C5      20.565549   18.783673   22.096770 C.3        1 MOL1        -0.1880
      14    H7      20.142151   17.778391   21.973979 H          1 MOL1         0.0742
      15    H8      20.871618   19.119993   21.096918 H          1 MOL1         0.0742
      16    C6      21.809871   18.668100   23.007978 C.3        1 MOL1        -0.1856
      17    H9      22.461012   17.875643   22.614020 H          1 MOL1         0.0742
      18    H10     21.504433   18.346791   24.013387 H          1 MOL1         0.0742
      19    C7      22.625275   19.976054   23.103803 C.3        1 MOL1        -0.2871
      20    H11     22.056114   20.768778   23.604796 H          1 MOL1         0.0754
      21    H12     22.911727   20.334453   22.106509 H          1 MOL1         0.0754
      22    H13     23.544636   19.813072   23.680960 H          1 MOL1         0.0754
@<TRIPOS>BOND
    1     1     2    1
    2     1     3    2
    3     1     4    1
    4     4     5    1
    5     4     6    1
    6     4     7    1
    7     7     8    1
    8     7     9    1
    9     7    10    1
   10    10    11    1
   11    10    12    1
   12    10    13    1
   13    13    14    1
   14    13    15    1
   15    13    16    1
   16    16    17    1
   17    16    18    1
   18    16    19    1
   19    19    20    1
   20    19    21    1
   21    19    22    1
@<TRIPOS>SUBSTRUCTURE
       1 MOL1            1 RESIDUE      1      MOL     
@<SCITEGIC>MOL_PROPERTY
VConf Rank
SciTegic.value.IntegerValue
256

@<SCITEGIC>MOL_PROPERTY
Conf_Id
SciTegic.value.IntegerValue
70

@<SCITEGIC>MOL_PROPERTY
Delta U+W
SciTegic.value.DoubleValue
1.803

@<SCITEGIC>MOL_PROPERTY
U+W
SciTegic.value.DoubleValue
-51.356

@<SCITEGIC>MOL_PROPERTY
Grad RMS
SciTegic.value.DoubleValue
0.000000

@<SCITEGIC>MOL_PROPERTY
U
SciTegic.value.DoubleValue
10.428

@<SCITEGIC>MOL_PROPERTY
W
SciTegic.value.DoubleValue
-61.784

@<SCITEGIC>MOL_PROPERTY
W(PB)
SciTegic.value.DoubleValue
-64.014

@<SCITEGIC>MOL_PROPERTY
W(SA)
SciTegic.value.DoubleValue
2.230

@<SCITEGIC>MOL_PROPERTY
Valence
SciTegic.value.DoubleValue
8.445

@<SCITEGIC>MOL_PROPERTY
Coulomb
SciTegic.value.DoubleValue
1.306

@<SCITEGIC>MOL_PROPERTY
VdW
SciTegic.value.DoubleValue
0.676

@<SCITEGIC>MOL_PROPERTY
VdW6
SciTegic.value.DoubleValue
-8.929

@<SCITEGIC>MOL_PROPERTY
VdW12
SciTegic.value.DoubleValue
9.605

@<SCITEGIC>MOL_PROPERTY
Bond
SciTegic.value.DoubleValue
0.209

@<SCITEGIC>MOL_PROPERTY
Angle
SciTegic.value.DoubleValue
3.066

@<SCITEGIC>MOL_PROPERTY
Pdih
SciTegic.value.DoubleValue
5.170

@<SCITEGIC>MOL_PROPERTY
Idih
SciTegic.value.DoubleValue
0.001

@<SCITEGIC>MOL_PROPERTY
Tether
SciTegic.value.DoubleValue
0.000

@<TRIPOS>MOLECULE
guest-s21_confgen4.mol2 : confsearch ligand conformer 257
          22          21           1
SMALL
USER_CHARGES
 
@<TRIPOS>ATOM
       1    C1      18.644057   20.042020   25.377046 C.2        1 MOL1         0.6145
       2    O1      17.461403   19.762324   25.380591 O.co2      1 MOL1        -0.6735
       3    O2      19.070269   21.163689   25.569613 O.co2      1 MOL1        -0.6735
       4    C2      19.648071   18.917702   25.138381 C.3        1 MOL1        -0.1985
       5    H1      19.337993   18.064504   25.753152 H          1 MOL1         0.0740
       6    H2      20.628124   19.238338   25.511916 H          1 MOL1         0.0740
       7    C3      19.757393   18.475417   23.656014 C.3        1 MOL1        -0.1882
       8    H3      20.396427   17.584194   23.595815 H          1 MOL1         0.0742
       9    H4      18.762374   18.177931   23.299542 H          1 MOL1         0.0742
      10    C4      20.341211   19.584870   22.748912 C.3        1 MOL1        -0.1880
      11    H5      21.294656   19.927868   23.173336 H          1 MOL1         0.0742
      12    H6      19.672152   20.456456   22.747615 H          1 MOL1         0.0742
      13    C5      20.589152   19.123448   21.293184 C.3        1 MOL1        -0.1880
      14    H7      21.113803   19.926831   20.758202 H          1 MOL1         0.0742
      15    H8      21.264202   18.256748   21.291320 H          1 MOL1         0.0742
      16    C6      19.292127   18.775546   20.528423 C.3        1 MOL1        -0.1856
      17    H9      18.595408   19.623854   20.575593 H          1 MOL1         0.0742
      18    H10     18.790423   17.922059   21.002988 H          1 MOL1         0.0742
      19    C7      19.580548   18.430898   19.053376 C.3        1 MOL1        -0.2871
      20    H11     20.048760   19.278369   18.535763 H          1 MOL1         0.0754
      21    H12     18.650641   18.183321   18.525135 H          1 MOL1         0.0754
      22    H13     20.254256   17.567411   18.976688 H          1 MOL1         0.0754
@<TRIPOS>BOND
    1     1     2    1
    2     1     3    2
    3     1     4    1
    4     4     5    1
    5     4     6    1
    6     4     7    1
    7     7     8    1
    8     7     9    1
    9     7    10    1
   10    10    11    1
   11    10    12    1
   12    10    13    1
   13    13    14    1
   14    13    15    1
   15    13    16    1
   16    16    17    1
   17    16    18    1
   18    16    19    1
   19    19    20    1
   20    19    21    1
   21    19    22    1
@<TRIPOS>SUBSTRUCTURE
       1 MOL1            1 RESIDUE      1      MOL     
@<SCITEGIC>MOL_PROPERTY
VConf Rank
SciTegic.value.IntegerValue
257

@<SCITEGIC>MOL_PROPERTY
Conf_Id
SciTegic.value.IntegerValue
85

@<SCITEGIC>MOL_PROPERTY
Delta U+W
SciTegic.value.DoubleValue
0.707

@<SCITEGIC>MOL_PROPERTY
U+W
SciTegic.value.DoubleValue
-52.452

@<SCITEGIC>MOL_PROPERTY
Grad RMS
SciTegic.value.DoubleValue
0.000000

@<SCITEGIC>MOL_PROPERTY
U
SciTegic.value.DoubleValue
8.925

@<SCITEGIC>MOL_PROPERTY
W
SciTegic.value.DoubleValue
-61.378

@<SCITEGIC>MOL_PROPERTY
W(PB)
SciTegic.value.DoubleValue
-63.661

@<SCITEGIC>MOL_PROPERTY
W(SA)
SciTegic.value.DoubleValue
2.283

@<SCITEGIC>MOL_PROPERTY
Valence
SciTegic.value.DoubleValue
7.881

@<SCITEGIC>MOL_PROPERTY
Coulomb
SciTegic.value.DoubleValue
0.349

@<SCITEGIC>MOL_PROPERTY
VdW
SciTegic.value.DoubleValue
0.695

@<SCITEGIC>MOL_PROPERTY
VdW6
SciTegic.value.DoubleValue
-8.049

@<SCITEGIC>MOL_PROPERTY
VdW12
SciTegic.value.DoubleValue
8.743

@<SCITEGIC>MOL_PROPERTY
Bond
SciTegic.value.DoubleValue
0.156

@<SCITEGIC>MOL_PROPERTY
Angle
SciTegic.value.DoubleValue
2.660

@<SCITEGIC>MOL_PROPERTY
Pdih
SciTegic.value.DoubleValue
5.064

@<SCITEGIC>MOL_PROPERTY
Idih
SciTegic.value.DoubleValue
0.001

@<SCITEGIC>MOL_PROPERTY
Tether
SciTegic.value.DoubleValue
0.000

@<TRIPOS>MOLECULE
guest-s21_confgen4.mol2 : confsearch ligand conformer 258
          22          21           1
SMALL
USER_CHARGES
 
@<TRIPOS>ATOM
       1    C1      21.435916   16.076341   21.482771 C.2        1 MOL1         0.6145
       2    O1      22.608461   16.264136   21.224288 O.co2      1 MOL1        -0.6735
       3    O2      21.040661   15.172985   22.193190 O.co2      1 MOL1        -0.6735
       4    C2      20.399894   17.010676   20.863844 C.3        1 MOL1        -0.1985
       5    H1      19.594755   16.384795   20.461335 H          1 MOL1         0.0740
       6    H2      20.857523   17.526493   20.010988 H          1 MOL1         0.0740
       7    C3      19.804732   18.042608   21.857116 C.3        1 MOL1        -0.1882
       8    H3      18.968367   18.553873   21.364159 H          1 MOL1         0.0742
       9    H4      19.392080   17.515036   22.728129 H          1 MOL1         0.0742
      10    C4      20.843255   19.090662   22.319862 C.3        1 MOL1        -0.1880
      11    H5      21.186816   19.671240   21.452916 H          1 MOL1         0.0742
      12    H6      21.728926   18.572258   22.711889 H          1 MOL1         0.0742
      13    C5      20.327172   20.057033   23.415448 C.3        1 MOL1        -0.1880
      14    H7      20.067734   19.493846   24.322332 H          1 MOL1         0.0742
      15    H8      21.163575   20.710200   23.699470 H          1 MOL1         0.0742
      16    C6      19.140789   20.954516   22.983101 C.3        1 MOL1        -0.1856
      17    H9      19.165648   21.122609   21.897588 H          1 MOL1         0.0742
      18    H10     19.260807   21.942954   23.447732 H          1 MOL1         0.0742
      19    C7      17.765685   20.392148   23.407201 C.3        1 MOL1        -0.2871
      20    H11     17.572563   19.408337   22.964795 H          1 MOL1         0.0754
      21    H12     16.960402   21.066716   23.088932 H          1 MOL1         0.0754
      22    H13     17.705959   20.289885   24.498559 H          1 MOL1         0.0754
@<TRIPOS>BOND
    1     1     2    1
    2     1     3    2
    3     1     4    1
    4     4     5    1
    5     4     6    1
    6     4     7    1
    7     7     8    1
    8     7     9    1
    9     7    10    1
   10    10    11    1
   11    10    12    1
   12    10    13    1
   13    13    14    1
   14    13    15    1
   15    13    16    1
   16    16    17    1
   17    16    18    1
   18    16    19    1
   19    19    20    1
   20    19    21    1
   21    19    22    1
@<TRIPOS>SUBSTRUCTURE
       1 MOL1            1 RESIDUE      1      MOL     
@<SCITEGIC>MOL_PROPERTY
VConf Rank
SciTegic.value.IntegerValue
258

@<SCITEGIC>MOL_PROPERTY
Conf_Id
SciTegic.value.IntegerValue
82

@<SCITEGIC>MOL_PROPERTY
Delta U+W
SciTegic.value.DoubleValue
3.438

@<SCITEGIC>MOL_PROPERTY
U+W
SciTegic.value.DoubleValue
-49.721

@<SCITEGIC>MOL_PROPERTY
Grad RMS
SciTegic.value.DoubleValue
0.000000

@<SCITEGIC>MOL_PROPERTY
U
SciTegic.value.DoubleValue
11.773

@<SCITEGIC>MOL_PROPERTY
W
SciTegic.value.DoubleValue
-61.495

@<SCITEGIC>MOL_PROPERTY
W(PB)
SciTegic.value.DoubleValue
-63.749

@<SCITEGIC>MOL_PROPERTY
W(SA)
SciTegic.value.DoubleValue
2.254

@<SCITEGIC>MOL_PROPERTY
Valence
SciTegic.value.DoubleValue
10.419

@<SCITEGIC>MOL_PROPERTY
Coulomb
SciTegic.value.DoubleValue
0.565

@<SCITEGIC>MOL_PROPERTY
VdW
SciTegic.value.DoubleValue
0.789

@<SCITEGIC>MOL_PROPERTY
VdW6
SciTegic.value.DoubleValue
-8.847

@<SCITEGIC>MOL_PROPERTY
VdW12
SciTegic.value.DoubleValue
9.636

@<SCITEGIC>MOL_PROPERTY
Bond
SciTegic.value.DoubleValue
0.200

@<SCITEGIC>MOL_PROPERTY
Angle
SciTegic.value.DoubleValue
3.187

@<SCITEGIC>MOL_PROPERTY
Pdih
SciTegic.value.DoubleValue
7.032

@<SCITEGIC>MOL_PROPERTY
Idih
SciTegic.value.DoubleValue
0.001

@<SCITEGIC>MOL_PROPERTY
Tether
SciTegic.value.DoubleValue
0.000

@<TRIPOS>MOLECULE
guest-s21_confgen4.mol2 : confsearch ligand conformer 259
          22          21           1
SMALL
USER_CHARGES
 
@<TRIPOS>ATOM
       1    C1      22.763348   20.453609   23.203507 C.2        1 MOL1         0.6145
       2    O1      23.288698   19.832981   24.106724 O.co2      1 MOL1        -0.6735
       3    O2      23.365973   20.865780   22.231962 O.co2      1 MOL1        -0.6735
       4    C2      21.269939   20.750522   23.308246 C.3        1 MOL1        -0.1985
       5    H1      21.028309   21.578384   22.630665 H          1 MOL1         0.0740
       6    H2      21.078667   21.108033   24.326869 H          1 MOL1         0.0740
       7    C3      20.359633   19.530831   23.009265 C.3        1 MOL1        -0.1882
       8    H3      20.643885   18.694251   23.662420 H          1 MOL1         0.0742
       9    H4      19.326620   19.800541   23.262342 H          1 MOL1         0.0742
      10    C4      20.424441   19.088528   21.528978 C.3        1 MOL1        -0.1880
      11    H5      21.473598   18.926262   21.246524 H          1 MOL1         0.0742
      12    H6      20.057113   19.902079   20.888740 H          1 MOL1         0.0742
      13    C5      19.636175   17.791587   21.217358 C.3        1 MOL1        -0.1880
      14    H7      19.803320   17.550592   20.158656 H          1 MOL1         0.0742
      15    H8      20.056838   16.949960   21.784485 H          1 MOL1         0.0742
      16    C6      18.108189   17.887883   21.453755 C.3        1 MOL1        -0.1856
      17    H9      17.595249   17.305237   20.676121 H          1 MOL1         0.0742
      18    H10     17.768122   18.925511   21.331715 H          1 MOL1         0.0742
      19    C7      17.668959   17.337973   22.829147 C.3        1 MOL1        -0.2871
      20    H11     17.940389   16.279137   22.930526 H          1 MOL1         0.0754
      21    H12     16.580315   17.417721   22.944531 H          1 MOL1         0.0754
      22    H13     18.134189   17.886482   23.655950 H          1 MOL1         0.0754
@<TRIPOS>BOND
    1     1     2    1
    2     1     3    2
    3     1     4    1
    4     4     5    1
    5     4     6    1
    6     4     7    1
    7     7     8    1
    8     7     9    1
    9     7    10    1
   10    10    11    1
   11    10    12    1
   12    10    13    1
   13    13    14    1
   14    13    15    1
   15    13    16    1
   16    16    17    1
   17    16    18    1
   18    16    19    1
   19    19    20    1
   20    19    21    1
   21    19    22    1
@<TRIPOS>SUBSTRUCTURE
       1 MOL1            1 RESIDUE      1      MOL     
@<SCITEGIC>MOL_PROPERTY
VConf Rank
SciTegic.value.IntegerValue
259

@<SCITEGIC>MOL_PROPERTY
Conf_Id
SciTegic.value.IntegerValue
94

@<SCITEGIC>MOL_PROPERTY
Delta U+W
SciTegic.value.DoubleValue
3.471

@<SCITEGIC>MOL_PROPERTY
U+W
SciTegic.value.DoubleValue
-49.688

@<SCITEGIC>MOL_PROPERTY
Grad RMS
SciTegic.value.DoubleValue
0.000000

@<SCITEGIC>MOL_PROPERTY
U
SciTegic.value.DoubleValue
11.773

@<SCITEGIC>MOL_PROPERTY
W
SciTegic.value.DoubleValue
-61.461

@<SCITEGIC>MOL_PROPERTY
W(PB)
SciTegic.value.DoubleValue
-63.710

@<SCITEGIC>MOL_PROPERTY
W(SA)
SciTegic.value.DoubleValue
2.248

@<SCITEGIC>MOL_PROPERTY
Valence
SciTegic.value.DoubleValue
10.419

@<SCITEGIC>MOL_PROPERTY
Coulomb
SciTegic.value.DoubleValue
0.566

@<SCITEGIC>MOL_PROPERTY
VdW
SciTegic.value.DoubleValue
0.789

@<SCITEGIC>MOL_PROPERTY
VdW6
SciTegic.value.DoubleValue
-8.847

@<SCITEGIC>MOL_PROPERTY
VdW12
SciTegic.value.DoubleValue
9.636

@<SCITEGIC>MOL_PROPERTY
Bond
SciTegic.value.DoubleValue
0.200

@<SCITEGIC>MOL_PROPERTY
Angle
SciTegic.value.DoubleValue
3.187

@<SCITEGIC>MOL_PROPERTY
Pdih
SciTegic.value.DoubleValue
7.032

@<SCITEGIC>MOL_PROPERTY
Idih
SciTegic.value.DoubleValue
0.001

@<SCITEGIC>MOL_PROPERTY
Tether
SciTegic.value.DoubleValue
0.000

@<TRIPOS>MOLECULE
guest-s21_confgen4.mol2 : confsearch ligand conformer 260
          22          21           1
SMALL
USER_CHARGES
 
@<TRIPOS>ATOM
       1    C1      20.660927   16.188664   20.966289 C.2        1 MOL1         0.6145
       2    O1      21.023390   15.901920   19.842413 O.co2      1 MOL1        -0.6735
       3    O2      20.058700   15.424483   21.694249 O.co2      1 MOL1        -0.6735
       4    C2      20.961607   17.590716   21.483758 C.3        1 MOL1        -0.1985
       5    H1      21.909392   17.921210   21.042497 H          1 MOL1         0.0740
       6    H2      21.113050   17.521315   22.566939 H          1 MOL1         0.0740
       7    C3      19.836131   18.605691   21.155757 C.3        1 MOL1        -0.1882
       8    H3      19.652442   18.591261   20.072638 H          1 MOL1         0.0742
       9    H4      18.899099   18.280471   21.626957 H          1 MOL1         0.0742
      10    C4      20.170022   20.057685   21.580782 C.3        1 MOL1        -0.1880
      11    H5      19.350017   20.716957   21.267052 H          1 MOL1         0.0742
      12    H6      21.053331   20.396094   21.022400 H          1 MOL1         0.0742
      13    C5      20.436245   20.257562   23.096150 C.3        1 MOL1        -0.1880
      14    H7      21.355141   19.726524   23.377006 H          1 MOL1         0.0742
      15    H8      20.641508   21.321223   23.277911 H          1 MOL1         0.0742
      16    C6      19.288886   19.804453   24.032199 C.3        1 MOL1        -0.1856
      17    H9      19.600259   19.968761   25.072852 H          1 MOL1         0.0742
      18    H10     19.123366   18.723476   23.931720 H          1 MOL1         0.0742
      19    C7      17.965336   20.559846   23.784410 C.3        1 MOL1        -0.2871
      20    H11     18.111572   21.644855   23.863935 H          1 MOL1         0.0754
      21    H12     17.210045   20.264601   24.524080 H          1 MOL1         0.0754
      22    H13     17.560693   20.338600   22.788785 H          1 MOL1         0.0754
@<TRIPOS>BOND
    1     1     2    1
    2     1     3    2
    3     1     4    1
    4     4     5    1
    5     4     6    1
    6     4     7    1
    7     7     8    1
    8     7     9    1
    9     7    10    1
   10    10    11    1
   11    10    12    1
   12    10    13    1
   13    13    14    1
   14    13    15    1
   15    13    16    1
   16    16    17    1
   17    16    18    1
   18    16    19    1
   19    19    20    1
   20    19    21    1
   21    19    22    1
@<TRIPOS>SUBSTRUCTURE
       1 MOL1            1 RESIDUE      1      MOL     
@<SCITEGIC>MOL_PROPERTY
VConf Rank
SciTegic.value.IntegerValue
260

@<SCITEGIC>MOL_PROPERTY
Conf_Id
SciTegic.value.IntegerValue
56

@<SCITEGIC>MOL_PROPERTY
Delta U+W
SciTegic.value.DoubleValue
0.853

@<SCITEGIC>MOL_PROPERTY
U+W
SciTegic.value.DoubleValue
-52.307

@<SCITEGIC>MOL_PROPERTY
Grad RMS
SciTegic.value.DoubleValue
0.000000

@<SCITEGIC>MOL_PROPERTY
U
SciTegic.value.DoubleValue
8.874

@<SCITEGIC>MOL_PROPERTY
W
SciTegic.value.DoubleValue
-61.181

@<SCITEGIC>MOL_PROPERTY
W(PB)
SciTegic.value.DoubleValue
-63.413

@<SCITEGIC>MOL_PROPERTY
W(SA)
SciTegic.value.DoubleValue
2.232

@<SCITEGIC>MOL_PROPERTY
Valence
SciTegic.value.DoubleValue
8.479

@<SCITEGIC>MOL_PROPERTY
Coulomb
SciTegic.value.DoubleValue
-0.357

@<SCITEGIC>MOL_PROPERTY
VdW
SciTegic.value.DoubleValue
0.753

@<SCITEGIC>MOL_PROPERTY
VdW6
SciTegic.value.DoubleValue
-9.081

@<SCITEGIC>MOL_PROPERTY
VdW12
SciTegic.value.DoubleValue
9.833

@<SCITEGIC>MOL_PROPERTY
Bond
SciTegic.value.DoubleValue
0.221

@<SCITEGIC>MOL_PROPERTY
Angle
SciTegic.value.DoubleValue
3.208

@<SCITEGIC>MOL_PROPERTY
Pdih
SciTegic.value.DoubleValue
5.050

@<SCITEGIC>MOL_PROPERTY
Idih
SciTegic.value.DoubleValue
0.000

@<SCITEGIC>MOL_PROPERTY
Tether
SciTegic.value.DoubleValue
0.000

@<TRIPOS>MOLECULE
guest-s21_confgen4.mol2 : confsearch ligand conformer 261
          22          21           1
SMALL
USER_CHARGES
 
@<TRIPOS>ATOM
       1    C1      16.336329   16.937686   21.695216 C.2        1 MOL1         0.6145
       2    O1      16.875318   15.851534   21.785580 O.co2      1 MOL1        -0.6735
       3    O2      15.140957   17.073046   21.525852 O.co2      1 MOL1        -0.6735
       4    C2      17.175923   18.212292   21.795163 C.3        1 MOL1        -0.1985
       5    H1      16.767892   18.808799   22.619577 H          1 MOL1         0.0740
       6    H2      17.013136   18.784132   20.874040 H          1 MOL1         0.0740
       7    C3      18.696289   17.988902   22.011940 C.3        1 MOL1        -0.1882
       8    H3      18.851982   17.410144   22.932965 H          1 MOL1         0.0742
       9    H4      19.097496   17.385617   21.185762 H          1 MOL1         0.0742
      10    C4      19.465976   19.324605   22.101345 C.3        1 MOL1        -0.1880
      11    H5      19.063130   19.925945   22.927926 H          1 MOL1         0.0742
      12    H6      19.308704   19.901464   21.179591 H          1 MOL1         0.0742
      13    C5      20.978079   19.100107   22.316876 C.3        1 MOL1        -0.1880
      14    H7      21.135858   18.523216   23.238521 H          1 MOL1         0.0742
      15    H8      21.381390   18.498816   21.490489 H          1 MOL1         0.0742
      16    C6      21.747847   20.434479   22.406376 C.3        1 MOL1        -0.1856
      17    H9      21.348493   21.037887   23.233353 H          1 MOL1         0.0742
      18    H10     21.593968   21.013534   21.485240 H          1 MOL1         0.0742
      19    C7      23.257422   20.205948   22.621537 C.3        1 MOL1        -0.2871
      20    H11     23.442473   19.655548   23.553323 H          1 MOL1         0.0754
      21    H12     23.788948   21.164495   22.682860 H          1 MOL1         0.0754
      22    H13     23.689797   19.631079   21.792088 H          1 MOL1         0.0754
@<TRIPOS>BOND
    1     1     2    1
    2     1     3    2
    3     1     4    1
    4     4     5    1
    5     4     6    1
    6     4     7    1
    7     7     8    1
    8     7     9    1
    9     7    10    1
   10    10    11    1
   11    10    12    1
   12    10    13    1
   13    13    14    1
   14    13    15    1
   15    13    16    1
   16    16    17    1
   17    16    18    1
   18    16    19    1
   19    19    20    1
   20    19    21    1
   21    19    22    1
@<TRIPOS>SUBSTRUCTURE
       1 MOL1            1 RESIDUE      1      MOL     
@<SCITEGIC>MOL_PROPERTY
VConf Rank
SciTegic.value.IntegerValue
261

@<SCITEGIC>MOL_PROPERTY
Conf_Id
SciTegic.value.IntegerValue
0

@<SCITEGIC>MOL_PROPERTY
Delta U+W
SciTegic.value.DoubleValue
0.000

@<SCITEGIC>MOL_PROPERTY
U+W
SciTegic.value.DoubleValue
-53.159

@<SCITEGIC>MOL_PROPERTY
Grad RMS
SciTegic.value.DoubleValue
0.000000

@<SCITEGIC>MOL_PROPERTY
U
SciTegic.value.DoubleValue
6.763

@<SCITEGIC>MOL_PROPERTY
W
SciTegic.value.DoubleValue
-59.922

@<SCITEGIC>MOL_PROPERTY
W(PB)
SciTegic.value.DoubleValue
-62.256

@<SCITEGIC>MOL_PROPERTY
W(SA)
SciTegic.value.DoubleValue
2.334

@<SCITEGIC>MOL_PROPERTY
Valence
SciTegic.value.DoubleValue
7.600

@<SCITEGIC>MOL_PROPERTY
Coulomb
SciTegic.value.DoubleValue
-2.139

@<SCITEGIC>MOL_PROPERTY
VdW
SciTegic.value.DoubleValue
1.302

@<SCITEGIC>MOL_PROPERTY
VdW6
SciTegic.value.DoubleValue
-6.786

@<SCITEGIC>MOL_PROPERTY
VdW12
SciTegic.value.DoubleValue
8.088

@<SCITEGIC>MOL_PROPERTY
Bond
SciTegic.value.DoubleValue
0.134

@<SCITEGIC>MOL_PROPERTY
Angle
SciTegic.value.DoubleValue
2.720

@<SCITEGIC>MOL_PROPERTY
Pdih
SciTegic.value.DoubleValue
4.746

@<SCITEGIC>MOL_PROPERTY
Idih
SciTegic.value.DoubleValue
0.000

@<SCITEGIC>MOL_PROPERTY
Tether
SciTegic.value.DoubleValue
0.000

@<TRIPOS>MOLECULE
guest-s21_confgen4.mol2 : confsearch ligand conformer 262
          22          21           1
SMALL
USER_CHARGES
 
@<TRIPOS>ATOM
       1    C1      23.026756   16.650232   22.749091 C.2        1 MOL1         0.6145
       2    O1      23.364053   16.010158   21.772890 O.co2      1 MOL1        -0.6735
       3    O2      23.160130   16.256760   23.890941 O.co2      1 MOL1        -0.6735
       4    C2      22.379897   18.012940   22.528153 C.3        1 MOL1        -0.1985
       5    H1      22.818531   18.456083   21.625996 H          1 MOL1         0.0740
       6    H2      22.650782   18.659450   23.371543 H          1 MOL1         0.0740
       7    C3      20.839652   17.932476   22.389509 C.3        1 MOL1        -0.1882
       8    H3      20.584967   17.271485   21.549391 H          1 MOL1         0.0742
       9    H4      20.417223   17.474848   23.294884 H          1 MOL1         0.0742
      10    C4      20.209058   19.324101   22.166771 C.3        1 MOL1        -0.1880
      11    H5      20.634364   19.779268   21.261723 H          1 MOL1         0.0742
      12    H6      20.466614   19.982703   23.007652 H          1 MOL1         0.0742
      13    C5      18.673690   19.240762   22.028964 C.3        1 MOL1        -0.1880
      14    H7      18.415721   18.582230   21.188182 H          1 MOL1         0.0742
      15    H8      18.247995   18.785631   22.933820 H          1 MOL1         0.0742
      16    C6      18.042709   20.631216   21.806319 C.3        1 MOL1        -0.1856
      17    H9      18.464646   21.088905   20.900798 H          1 MOL1         0.0742
      18    H10     18.296930   21.292319   22.646433 H          1 MOL1         0.0742
      19    C7      16.509450   20.543715   21.669200 C.3        1 MOL1        -0.2871
      20    H11     16.057750   20.118112   22.574870 H          1 MOL1         0.0754
      21    H12     16.226741   19.913012   20.816149 H          1 MOL1         0.0754
      22    H13     16.077620   21.540575   21.511453 H          1 MOL1         0.0754
@<TRIPOS>BOND
    1     1     2    1
    2     1     3    2
    3     1     4    1
    4     4     5    1
    5     4     6    1
    6     4     7    1
    7     7     8    1
    8     7     9    1
    9     7    10    1
   10    10    11    1
   11    10    12    1
   12    10    13    1
   13    13    14    1
   14    13    15    1
   15    13    16    1
   16    16    17    1
   17    16    18    1
   18    16    19    1
   19    19    20    1
   20    19    21    1
   21    19    22    1
@<TRIPOS>SUBSTRUCTURE
       1 MOL1            1 RESIDUE      1      MOL     
@<SCITEGIC>MOL_PROPERTY
VConf Rank
SciTegic.value.IntegerValue
262

@<SCITEGIC>MOL_PROPERTY
Conf_Id
SciTegic.value.IntegerValue
10

@<SCITEGIC>MOL_PROPERTY
Delta U+W
SciTegic.value.DoubleValue
-1.291

@<SCITEGIC>MOL_PROPERTY
U+W
SciTegic.value.DoubleValue
-54.451

@<SCITEGIC>MOL_PROPERTY
Grad RMS
SciTegic.value.DoubleValue
0.000000

@<SCITEGIC>MOL_PROPERTY
U
SciTegic.value.DoubleValue
5.779

@<SCITEGIC>MOL_PROPERTY
W
SciTegic.value.DoubleValue
-60.230

@<SCITEGIC>MOL_PROPERTY
W(PB)
SciTegic.value.DoubleValue
-62.557

@<SCITEGIC>MOL_PROPERTY
W(SA)
SciTegic.value.DoubleValue
2.328

@<SCITEGIC>MOL_PROPERTY
Valence
SciTegic.value.DoubleValue
7.101

@<SCITEGIC>MOL_PROPERTY
Coulomb
SciTegic.value.DoubleValue
-2.079

@<SCITEGIC>MOL_PROPERTY
VdW
SciTegic.value.DoubleValue
0.757

@<SCITEGIC>MOL_PROPERTY
VdW6
SciTegic.value.DoubleValue
-6.496

@<SCITEGIC>MOL_PROPERTY
VdW12
SciTegic.value.DoubleValue
7.253

@<SCITEGIC>MOL_PROPERTY
Bond
SciTegic.value.DoubleValue
0.100

@<SCITEGIC>MOL_PROPERTY
Angle
SciTegic.value.DoubleValue
2.262

@<SCITEGIC>MOL_PROPERTY
Pdih
SciTegic.value.DoubleValue
4.738

@<SCITEGIC>MOL_PROPERTY
Idih
SciTegic.value.DoubleValue
0.001

@<SCITEGIC>MOL_PROPERTY
Tether
SciTegic.value.DoubleValue
0.000

@<TRIPOS>MOLECULE
guest-s21_confgen4.mol2 : confsearch ligand conformer 263
          22          21           1
SMALL
USER_CHARGES
 
@<TRIPOS>ATOM
       1    C1      20.005330   15.314480   23.624302 C.2        1 MOL1         0.6145
       2    O1      21.064229   14.761020   23.403245 O.co2      1 MOL1        -0.6735
       3    O2      19.286288   15.040714   24.564775 O.co2      1 MOL1        -0.6735
       4    C2      19.564576   16.428450   22.681427 C.3        1 MOL1        -0.1985
       5    H1      18.469007   16.420667   22.633330 H          1 MOL1         0.0740
       6    H2      19.934887   16.191011   21.676863 H          1 MOL1         0.0740
       7    C3      20.070247   17.824496   23.121318 C.3        1 MOL1        -0.1882
       8    H3      19.701961   18.041025   24.133738 H          1 MOL1         0.0742
       9    H4      21.167667   17.812196   23.176728 H          1 MOL1         0.0742
      10    C4      19.610963   18.934333   22.150924 C.3        1 MOL1        -0.1880
      11    H5      18.513672   18.945651   22.099161 H          1 MOL1         0.0742
      12    H6      19.977907   18.704607   21.142091 H          1 MOL1         0.0742
      13    C5      20.121356   20.325332   22.592377 C.3        1 MOL1        -0.1880
      14    H7      19.805485   20.509721   23.628311 H          1 MOL1         0.0742
      15    H8      21.219931   20.332603   22.596130 H          1 MOL1         0.0742
      16    C6      19.599709   21.481008   21.707163 C.3        1 MOL1        -0.1856
      17    H9      19.909231   22.435360   22.155096 H          1 MOL1         0.0742
      18    H10     18.500933   21.480801   21.706033 H          1 MOL1         0.0742
      19    C7      20.120669   21.421743   20.254821 C.3        1 MOL1        -0.2871
      20    H11     19.795824   22.307795   19.694189 H          1 MOL1         0.0754
      21    H12     19.739771   20.537856   19.728166 H          1 MOL1         0.0754
      22    H13     21.217778   21.390775   20.231864 H          1 MOL1         0.0754
@<TRIPOS>BOND
    1     1     2    1
    2     1     3    2
    3     1     4    1
    4     4     5    1
    5     4     6    1
    6     4     7    1
    7     7     8    1
    8     7     9    1
    9     7    10    1
   10    10    11    1
   11    10    12    1
   12    10    13    1
   13    13    14    1
   14    13    15    1
   15    13    16    1
   16    16    17    1
   17    16    18    1
   18    16    19    1
   19    19    20    1
   20    19    21    1
   21    19    22    1
@<TRIPOS>SUBSTRUCTURE
       1 MOL1            1 RESIDUE      1      MOL     
@<SCITEGIC>MOL_PROPERTY
VConf Rank
SciTegic.value.IntegerValue
263

@<SCITEGIC>MOL_PROPERTY
Conf_Id
SciTegic.value.IntegerValue
37

@<SCITEGIC>MOL_PROPERTY
Delta U+W
SciTegic.value.DoubleValue
-0.345

@<SCITEGIC>MOL_PROPERTY
U+W
SciTegic.value.DoubleValue
-53.504

@<SCITEGIC>MOL_PROPERTY
Grad RMS
SciTegic.value.DoubleValue
0.000000

@<SCITEGIC>MOL_PROPERTY
U
SciTegic.value.DoubleValue
6.751

@<SCITEGIC>MOL_PROPERTY
W
SciTegic.value.DoubleValue
-60.255

@<SCITEGIC>MOL_PROPERTY
W(PB)
SciTegic.value.DoubleValue
-62.592

@<SCITEGIC>MOL_PROPERTY
W(SA)
SciTegic.value.DoubleValue
2.336

@<SCITEGIC>MOL_PROPERTY
Valence
SciTegic.value.DoubleValue
7.602

@<SCITEGIC>MOL_PROPERTY
Coulomb
SciTegic.value.DoubleValue
-1.744

@<SCITEGIC>MOL_PROPERTY
VdW
SciTegic.value.DoubleValue
0.894

@<SCITEGIC>MOL_PROPERTY
VdW6
SciTegic.value.DoubleValue
-7.110

@<SCITEGIC>MOL_PROPERTY
VdW12
SciTegic.value.DoubleValue
8.004

@<SCITEGIC>MOL_PROPERTY
Bond
SciTegic.value.DoubleValue
0.131

@<SCITEGIC>MOL_PROPERTY
Angle
SciTegic.value.DoubleValue
2.489

@<SCITEGIC>MOL_PROPERTY
Pdih
SciTegic.value.DoubleValue
4.982

@<SCITEGIC>MOL_PROPERTY
Idih
SciTegic.value.DoubleValue
0.001

@<SCITEGIC>MOL_PROPERTY
Tether
SciTegic.value.DoubleValue
0.000

@<TRIPOS>MOLECULE
guest-s21_confgen4.mol2 : confsearch ligand conformer 264
          22          21           1
SMALL
USER_CHARGES
 
@<TRIPOS>ATOM
       1    C1      22.980329   16.841417   22.792429 C.2        1 MOL1         0.6145
       2    O1      22.740481   15.650531   22.819155 O.co2      1 MOL1        -0.6735
       3    O2      23.921822   17.351378   23.366876 O.co2      1 MOL1        -0.6735
       4    C2      22.035332   17.748844   22.012833 C.3        1 MOL1        -0.1985
       5    H1      21.646514   17.182156   21.158233 H          1 MOL1         0.0740
       6    H2      22.620474   18.583801   21.608975 H          1 MOL1         0.0740
       7    C3      20.866108   18.283824   22.875890 C.3        1 MOL1        -0.1882
       8    H3      20.297698   17.435925   23.282739 H          1 MOL1         0.0742
       9    H4      21.272477   18.836844   23.734111 H          1 MOL1         0.0742
      10    C4      19.924422   19.199538   22.064074 C.3        1 MOL1        -0.1880
      11    H5      19.530150   18.639875   21.205882 H          1 MOL1         0.0742
      12    H6      20.494816   20.047277   21.660534 H          1 MOL1         0.0742
      13    C5      18.756905   19.727784   22.929016 C.3        1 MOL1        -0.1880
      14    H7      18.154237   18.884237   23.292550 H          1 MOL1         0.0742
      15    H8      19.167457   20.223364   23.819399 H          1 MOL1         0.0742
      16    C6      17.845676   20.731485   22.185000 C.3        1 MOL1        -0.1856
      17    H9      18.444039   21.579994   21.825413 H          1 MOL1         0.0742
      18    H10     17.119604   21.144380   22.898843 H          1 MOL1         0.0742
      19    C7      17.077212   20.100182   21.003844 C.3        1 MOL1        -0.2871
      20    H11     16.494598   19.230348   21.334126 H          1 MOL1         0.0754
      21    H12     17.760255   19.775880   20.208869 H          1 MOL1         0.0754
      22    H13     16.380618   20.827285   20.566812 H          1 MOL1         0.0754
@<TRIPOS>BOND
    1     1     2    1
    2     1     3    2
    3     1     4    1
    4     4     5    1
    5     4     6    1
    6     4     7    1
    7     7     8    1
    8     7     9    1
    9     7    10    1
   10    10    11    1
   11    10    12    1
   12    10    13    1
   13    13    14    1
   14    13    15    1
   15    13    16    1
   16    16    17    1
   17    16    18    1
   18    16    19    1
   19    19    20    1
   20    19    21    1
   21    19    22    1
@<TRIPOS>SUBSTRUCTURE
       1 MOL1            1 RESIDUE      1      MOL     
@<SCITEGIC>MOL_PROPERTY
VConf Rank
SciTegic.value.IntegerValue
264

@<SCITEGIC>MOL_PROPERTY
Conf_Id
SciTegic.value.IntegerValue
38

@<SCITEGIC>MOL_PROPERTY
Delta U+W
SciTegic.value.DoubleValue
-0.439

@<SCITEGIC>MOL_PROPERTY
U+W
SciTegic.value.DoubleValue
-53.598

@<SCITEGIC>MOL_PROPERTY
Grad RMS
SciTegic.value.DoubleValue
0.000000

@<SCITEGIC>MOL_PROPERTY
U
SciTegic.value.DoubleValue
6.751

@<SCITEGIC>MOL_PROPERTY
W
SciTegic.value.DoubleValue
-60.350

@<SCITEGIC>MOL_PROPERTY
W(PB)
SciTegic.value.DoubleValue
-62.659

@<SCITEGIC>MOL_PROPERTY
W(SA)
SciTegic.value.DoubleValue
2.309

@<SCITEGIC>MOL_PROPERTY
Valence
SciTegic.value.DoubleValue
7.602

@<SCITEGIC>MOL_PROPERTY
Coulomb
SciTegic.value.DoubleValue
-1.744

@<SCITEGIC>MOL_PROPERTY
VdW
SciTegic.value.DoubleValue
0.893

@<SCITEGIC>MOL_PROPERTY
VdW6
SciTegic.value.DoubleValue
-7.110

@<SCITEGIC>MOL_PROPERTY
VdW12
SciTegic.value.DoubleValue
8.004

@<SCITEGIC>MOL_PROPERTY
Bond
SciTegic.value.DoubleValue
0.131

@<SCITEGIC>MOL_PROPERTY
Angle
SciTegic.value.DoubleValue
2.489

@<SCITEGIC>MOL_PROPERTY
Pdih
SciTegic.value.DoubleValue
4.981

@<SCITEGIC>MOL_PROPERTY
Idih
SciTegic.value.DoubleValue
0.001

@<SCITEGIC>MOL_PROPERTY
Tether
SciTegic.value.DoubleValue
0.000

@<TRIPOS>MOLECULE
guest-s21_confgen4.mol2 : confsearch ligand conformer 265
          22          21           1
SMALL
USER_CHARGES
 
@<TRIPOS>ATOM
       1    C1      18.199009   20.473742   19.179870 C.2        1 MOL1         0.6145
       2    O1      17.958985   21.657381   19.045901 O.co2      1 MOL1        -0.6735
       3    O2      17.633116   19.597806   18.556145 O.co2      1 MOL1        -0.6735
       4    C2      19.252190   20.064001   20.203203 C.3        1 MOL1        -0.1985
       5    H1      20.008123   20.857011   20.249208 H          1 MOL1         0.0740
       6    H2      19.748343   19.162539   19.826826 H          1 MOL1         0.0740
       7    C3      18.653610   19.813047   21.611867 C.3        1 MOL1        -0.1882
       8    H3      18.082519   20.701919   21.913875 H          1 MOL1         0.0742
       9    H4      17.933792   18.984321   21.563175 H          1 MOL1         0.0742
      10    C4      19.718273   19.518313   22.695539 C.3        1 MOL1        -0.1880
      11    H5      19.213962   19.497984   23.670006 H          1 MOL1         0.0742
      12    H6      20.440929   20.344642   22.735755 H          1 MOL1         0.0742
      13    C5      20.465970   18.180177   22.475628 C.3        1 MOL1        -0.1880
      14    H7      19.743031   17.354163   22.433645 H          1 MOL1         0.0742
      15    H8      20.973267   18.200285   21.502835 H          1 MOL1         0.0742
      16    C6      21.526868   17.883936   23.561378 C.3        1 MOL1        -0.1856
      17    H9      22.245489   18.713429   23.614475 H          1 MOL1         0.0742
      18    H10     22.099940   16.996391   23.259555 H          1 MOL1         0.0742
      19    C7      20.921223   17.629676   24.958947 C.3        1 MOL1        -0.2871
      20    H11     20.440123   18.530983   25.358464 H          1 MOL1         0.0754
      21    H12     21.704471   17.330583   25.667455 H          1 MOL1         0.0754
      22    H13     20.173723   16.826505   24.923124 H          1 MOL1         0.0754
@<TRIPOS>BOND
    1     1     2    1
    2     1     3    2
    3     1     4    1
    4     4     5    1
    5     4     6    1
    6     4     7    1
    7     7     8    1
    8     7     9    1
    9     7    10    1
   10    10    11    1
   11    10    12    1
   12    10    13    1
   13    13    14    1
   14    13    15    1
   15    13    16    1
   16    16    17    1
   17    16    18    1
   18    16    19    1
   19    19    20    1
   20    19    21    1
   21    19    22    1
@<TRIPOS>SUBSTRUCTURE
       1 MOL1            1 RESIDUE      1      MOL     
@<SCITEGIC>MOL_PROPERTY
VConf Rank
SciTegic.value.IntegerValue
265

@<SCITEGIC>MOL_PROPERTY
Conf_Id
SciTegic.value.IntegerValue
60

@<SCITEGIC>MOL_PROPERTY
Delta U+W
SciTegic.value.DoubleValue
0.386

@<SCITEGIC>MOL_PROPERTY
U+W
SciTegic.value.DoubleValue
-52.773

@<SCITEGIC>MOL_PROPERTY
Grad RMS
SciTegic.value.DoubleValue
0.000000

@<SCITEGIC>MOL_PROPERTY
U
SciTegic.value.DoubleValue
7.689

@<SCITEGIC>MOL_PROPERTY
W
SciTegic.value.DoubleValue
-60.463

@<SCITEGIC>MOL_PROPERTY
W(PB)
SciTegic.value.DoubleValue
-62.772

@<SCITEGIC>MOL_PROPERTY
W(SA)
SciTegic.value.DoubleValue
2.309

@<SCITEGIC>MOL_PROPERTY
Valence
SciTegic.value.DoubleValue
8.197

@<SCITEGIC>MOL_PROPERTY
Coulomb
SciTegic.value.DoubleValue
-1.561

@<SCITEGIC>MOL_PROPERTY
VdW
SciTegic.value.DoubleValue
1.053

@<SCITEGIC>MOL_PROPERTY
VdW6
SciTegic.value.DoubleValue
-7.737

@<SCITEGIC>MOL_PROPERTY
VdW12
SciTegic.value.DoubleValue
8.790

@<SCITEGIC>MOL_PROPERTY
Bond
SciTegic.value.DoubleValue
0.181

@<SCITEGIC>MOL_PROPERTY
Angle
SciTegic.value.DoubleValue
2.780

@<SCITEGIC>MOL_PROPERTY
Pdih
SciTegic.value.DoubleValue
5.235

@<SCITEGIC>MOL_PROPERTY
Idih
SciTegic.value.DoubleValue
0.001

@<SCITEGIC>MOL_PROPERTY
Tether
SciTegic.value.DoubleValue
0.000

@<TRIPOS>MOLECULE
guest-s21_confgen4.mol2 : confsearch ligand conformer 266
          22          21           1
SMALL
USER_CHARGES
 
@<TRIPOS>ATOM
       1    C1      17.945017   20.592487   25.030803 C.2        1 MOL1         0.6145
       2    O1      16.785648   20.228868   25.017475 O.co2      1 MOL1        -0.6735
       3    O2      18.331031   21.588453   25.610118 O.co2      1 MOL1        -0.6735
       4    C2      18.968061   19.766206   24.259486 C.3        1 MOL1        -0.1985
       5    H1      18.654977   18.717483   24.310687 H          1 MOL1         0.0740
       6    H2      19.930256   19.844875   24.779493 H          1 MOL1         0.0740
       7    C3      19.118038   20.222461   22.784715 C.3        1 MOL1        -0.1882
       8    H3      18.160937   20.093233   22.260737 H          1 MOL1         0.0742
       9    H4      19.335630   21.299454   22.771020 H          1 MOL1         0.0742
      10    C4      20.239135   19.482288   22.016596 C.3        1 MOL1        -0.1880
      11    H5      21.192801   19.606624   22.547379 H          1 MOL1         0.0742
      12    H6      20.360211   19.969166   21.040575 H          1 MOL1         0.0742
      13    C5      19.950050   17.975451   21.807101 C.3        1 MOL1        -0.1880
      14    H7      19.831878   17.486699   22.782414 H          1 MOL1         0.0742
      15    H8      18.995428   17.851213   21.277984 H          1 MOL1         0.0742
      16    C6      21.068715   17.237087   21.035402 C.3        1 MOL1        -0.1856
      17    H9      20.853437   16.159738   21.050255 H          1 MOL1         0.0742
      18    H10     22.027653   17.368617   21.555431 H          1 MOL1         0.0742
      19    C7      21.206192   17.693598   19.566609 C.3        1 MOL1        -0.2871
      20    H11     20.249502   17.603325   19.035837 H          1 MOL1         0.0754
      21    H12     21.944057   17.074385   19.040254 H          1 MOL1         0.0754
      22    H13     21.540798   18.736169   19.499465 H          1 MOL1         0.0754
@<TRIPOS>BOND
    1     1     2    1
    2     1     3    2
    3     1     4    1
    4     4     5    1
    5     4     6    1
    6     4     7    1
    7     7     8    1
    8     7     9    1
    9     7    10    1
   10    10    11    1
   11    10    12    1
   12    10    13    1
   13    13    14    1
   14    13    15    1
   15    13    16    1
   16    16    17    1
   17    16    18    1
   18    16    19    1
   19    19    20    1
   20    19    21    1
   21    19    22    1
@<TRIPOS>SUBSTRUCTURE
       1 MOL1            1 RESIDUE      1      MOL     
@<SCITEGIC>MOL_PROPERTY
VConf Rank
SciTegic.value.IntegerValue
266

@<SCITEGIC>MOL_PROPERTY
Conf_Id
SciTegic.value.IntegerValue
28

@<SCITEGIC>MOL_PROPERTY
Delta U+W
SciTegic.value.DoubleValue
0.351

@<SCITEGIC>MOL_PROPERTY
U+W
SciTegic.value.DoubleValue
-52.808

@<SCITEGIC>MOL_PROPERTY
Grad RMS
SciTegic.value.DoubleValue
0.000000

@<SCITEGIC>MOL_PROPERTY
U
SciTegic.value.DoubleValue
7.689

@<SCITEGIC>MOL_PROPERTY
W
SciTegic.value.DoubleValue
-60.498

@<SCITEGIC>MOL_PROPERTY
W(PB)
SciTegic.value.DoubleValue
-62.768

@<SCITEGIC>MOL_PROPERTY
W(SA)
SciTegic.value.DoubleValue
2.270

@<SCITEGIC>MOL_PROPERTY
Valence
SciTegic.value.DoubleValue
8.197

@<SCITEGIC>MOL_PROPERTY
Coulomb
SciTegic.value.DoubleValue
-1.561

@<SCITEGIC>MOL_PROPERTY
VdW
SciTegic.value.DoubleValue
1.053

@<SCITEGIC>MOL_PROPERTY
VdW6
SciTegic.value.DoubleValue
-7.737

@<SCITEGIC>MOL_PROPERTY
VdW12
SciTegic.value.DoubleValue
8.791

@<SCITEGIC>MOL_PROPERTY
Bond
SciTegic.value.DoubleValue
0.181

@<SCITEGIC>MOL_PROPERTY
Angle
SciTegic.value.DoubleValue
2.780

@<SCITEGIC>MOL_PROPERTY
Pdih
SciTegic.value.DoubleValue
5.235

@<SCITEGIC>MOL_PROPERTY
Idih
SciTegic.value.DoubleValue
0.001

@<SCITEGIC>MOL_PROPERTY
Tether
SciTegic.value.DoubleValue
0.000

@<TRIPOS>MOLECULE
guest-s21_confgen4.mol2 : confsearch ligand conformer 267
          22          21           1
SMALL
USER_CHARGES
 
@<TRIPOS>ATOM
       1    C1      19.007328   19.680571   18.727108 C.2        1 MOL1         0.6145
       2    O1      18.449238   18.806044   18.094486 O.co2      1 MOL1        -0.6735
       3    O2      18.686769   20.851808   18.683508 O.co2      1 MOL1        -0.6735
       4    C2      20.160843   19.283355   19.641407 C.3        1 MOL1        -0.1985
       5    H1      20.873316   20.116452   19.672739 H          1 MOL1         0.0740
       6    H2      20.678514   18.430773   19.185625 H          1 MOL1         0.0740
       7    C3      19.696361   18.923874   21.074346 C.3        1 MOL1        -0.1882
       8    H3      19.164391   19.784411   21.500904 H          1 MOL1         0.0742
       9    H4      18.977202   18.094602   21.025110 H          1 MOL1         0.0742
      10    C4      20.885735   18.529910   21.980572 C.3        1 MOL1        -0.1880
      11    H5      21.578631   19.377525   22.072405 H          1 MOL1         0.0742
      12    H6      21.448662   17.719112   21.498202 H          1 MOL1         0.0742
      13    C5      20.456630   18.056991   23.389748 C.3        1 MOL1        -0.1880
      14    H7      19.766892   17.206779   23.298472 H          1 MOL1         0.0742
      15    H8      21.344707   17.681124   23.916028 H          1 MOL1         0.0742
      16    C6      19.802966   19.169054   24.240825 C.3        1 MOL1        -0.1856
      17    H9      18.869381   19.505687   23.771298 H          1 MOL1         0.0742
      18    H10     20.470707   20.040299   24.288358 H          1 MOL1         0.0742
      19    C7      19.496689   18.680157   25.670821 C.3        1 MOL1        -0.2871
      20    H11     20.415508   18.370748   26.185985 H          1 MOL1         0.0754
      21    H12     18.808195   17.825123   25.654140 H          1 MOL1         0.0754
      22    H13     19.030230   19.479492   26.261201 H          1 MOL1         0.0754
@<TRIPOS>BOND
    1     1     2    1
    2     1     3    2
    3     1     4    1
    4     4     5    1
    5     4     6    1
    6     4     7    1
    7     7     8    1
    8     7     9    1
    9     7    10    1
   10    10    11    1
   11    10    12    1
   12    10    13    1
   13    13    14    1
   14    13    15    1
   15    13    16    1
   16    16    17    1
   17    16    18    1
   18    16    19    1
   19    19    20    1
   20    19    21    1
   21    19    22    1
@<TRIPOS>SUBSTRUCTURE
       1 MOL1            1 RESIDUE      1      MOL     
@<SCITEGIC>MOL_PROPERTY
VConf Rank
SciTegic.value.IntegerValue
267

@<SCITEGIC>MOL_PROPERTY
Conf_Id
SciTegic.value.IntegerValue
50

@<SCITEGIC>MOL_PROPERTY
Delta U+W
SciTegic.value.DoubleValue
-0.486

@<SCITEGIC>MOL_PROPERTY
U+W
SciTegic.value.DoubleValue
-53.646

@<SCITEGIC>MOL_PROPERTY
Grad RMS
SciTegic.value.DoubleValue
0.000000

@<SCITEGIC>MOL_PROPERTY
U
SciTegic.value.DoubleValue
7.026

@<SCITEGIC>MOL_PROPERTY
W
SciTegic.value.DoubleValue
-60.672

@<SCITEGIC>MOL_PROPERTY
W(PB)
SciTegic.value.DoubleValue
-62.964

@<SCITEGIC>MOL_PROPERTY
W(SA)
SciTegic.value.DoubleValue
2.292

@<SCITEGIC>MOL_PROPERTY
Valence
SciTegic.value.DoubleValue
7.637

@<SCITEGIC>MOL_PROPERTY
Coulomb
SciTegic.value.DoubleValue
-1.488

@<SCITEGIC>MOL_PROPERTY
VdW
SciTegic.value.DoubleValue
0.877

@<SCITEGIC>MOL_PROPERTY
VdW6
SciTegic.value.DoubleValue
-7.165

@<SCITEGIC>MOL_PROPERTY
VdW12
SciTegic.value.DoubleValue
8.043

@<SCITEGIC>MOL_PROPERTY
Bond
SciTegic.value.DoubleValue
0.134

@<SCITEGIC>MOL_PROPERTY
Angle
SciTegic.value.DoubleValue
2.513

@<SCITEGIC>MOL_PROPERTY
Pdih
SciTegic.value.DoubleValue
4.990

@<SCITEGIC>MOL_PROPERTY
Idih
SciTegic.value.DoubleValue
0.001

@<SCITEGIC>MOL_PROPERTY
Tether
SciTegic.value.DoubleValue
0.000

@<TRIPOS>MOLECULE
guest-s21_confgen4.mol2 : confsearch ligand conformer 268
          22          21           1
SMALL
USER_CHARGES
 
@<TRIPOS>ATOM
       1    C1      18.706709   18.523180   25.815823 C.2        1 MOL1         0.6145
       2    O1      18.610794   17.376268   26.205522 O.co2      1 MOL1        -0.6735
       3    O2      17.906907   19.396063   26.089405 O.co2      1 MOL1        -0.6735
       4    C2      19.884766   18.882016   24.917075 C.3        1 MOL1        -0.1985
       5    H1      20.739350   18.261202   25.211848 H          1 MOL1         0.0740
       6    H2      20.158476   19.925477   25.114362 H          1 MOL1         0.0740
       7    C3      19.574906   18.686660   23.412376 C.3        1 MOL1        -0.1882
       8    H3      19.294000   17.639667   23.232927 H          1 MOL1         0.0742
       9    H4      18.705114   19.301792   23.146776 H          1 MOL1         0.0742
      10    C4      20.784141   19.061890   22.524671 C.3        1 MOL1        -0.1880
      11    H5      21.661862   18.491050   22.857403 H          1 MOL1         0.0742
      12    H6      21.032016   20.122968   22.664886 H          1 MOL1         0.0742
      13    C5      20.556571   18.777724   21.021002 C.3        1 MOL1        -0.1880
      14    H7      21.500568   18.952900   20.487045 H          1 MOL1         0.0742
      15    H8      20.312559   17.715895   20.879900 H          1 MOL1         0.0742
      16    C6      19.452578   19.654537   20.388003 C.3        1 MOL1        -0.1856
      17    H9      19.669127   20.715393   20.574813 H          1 MOL1         0.0742
      18    H10     18.482891   19.438018   20.855107 H          1 MOL1         0.0742
      19    C7      19.341681   19.414469   18.868863 C.3        1 MOL1        -0.2871
      20    H11     19.098296   18.365649   18.654095 H          1 MOL1         0.0754
      21    H12     20.284598   19.658513   18.362199 H          1 MOL1         0.0754
      22    H13     18.551955   20.041424   18.434895 H          1 MOL1         0.0754
@<TRIPOS>BOND
    1     1     2    1
    2     1     3    2
    3     1     4    1
    4     4     5    1
    5     4     6    1
    6     4     7    1
    7     7     8    1
    8     7     9    1
    9     7    10    1
   10    10    11    1
   11    10    12    1
   12    10    13    1
   13    13    14    1
   14    13    15    1
   15    13    16    1
   16    16    17    1
   17    16    18    1
   18    16    19    1
   19    19    20    1
   20    19    21    1
   21    19    22    1
@<TRIPOS>SUBSTRUCTURE
       1 MOL1            1 RESIDUE      1      MOL     
@<SCITEGIC>MOL_PROPERTY
VConf Rank
SciTegic.value.IntegerValue
268

@<SCITEGIC>MOL_PROPERTY
Conf_Id
SciTegic.value.IntegerValue
51

@<SCITEGIC>MOL_PROPERTY
Delta U+W
SciTegic.value.DoubleValue
-0.517

@<SCITEGIC>MOL_PROPERTY
U+W
SciTegic.value.DoubleValue
-53.677

@<SCITEGIC>MOL_PROPERTY
Grad RMS
SciTegic.value.DoubleValue
0.000000

@<SCITEGIC>MOL_PROPERTY
U
SciTegic.value.DoubleValue
7.026

@<SCITEGIC>MOL_PROPERTY
W
SciTegic.value.DoubleValue
-60.703

@<SCITEGIC>MOL_PROPERTY
W(PB)
SciTegic.value.DoubleValue
-63.007

@<SCITEGIC>MOL_PROPERTY
W(SA)
SciTegic.value.DoubleValue
2.304

@<SCITEGIC>MOL_PROPERTY
Valence
SciTegic.value.DoubleValue
7.638

@<SCITEGIC>MOL_PROPERTY
Coulomb
SciTegic.value.DoubleValue
-1.488

@<SCITEGIC>MOL_PROPERTY
VdW
SciTegic.value.DoubleValue
0.877

@<SCITEGIC>MOL_PROPERTY
VdW6
SciTegic.value.DoubleValue
-7.165

@<SCITEGIC>MOL_PROPERTY
VdW12
SciTegic.value.DoubleValue
8.042

@<SCITEGIC>MOL_PROPERTY
Bond
SciTegic.value.DoubleValue
0.134

@<SCITEGIC>MOL_PROPERTY
Angle
SciTegic.value.DoubleValue
2.513

@<SCITEGIC>MOL_PROPERTY
Pdih
SciTegic.value.DoubleValue
4.990

@<SCITEGIC>MOL_PROPERTY
Idih
SciTegic.value.DoubleValue
0.001

@<SCITEGIC>MOL_PROPERTY
Tether
SciTegic.value.DoubleValue
0.000

@<TRIPOS>MOLECULE
guest-s21_confgen4.mol2 : confsearch ligand conformer 269
          22          21           1
SMALL
USER_CHARGES
 
@<TRIPOS>ATOM
       1    C1      21.987781   21.610694   23.043035 C.2        1 MOL1         0.6145
       2    O1      22.183847   21.773596   24.231278 O.co2      1 MOL1        -0.6735
       3    O2      22.872356   21.388864   22.239847 O.co2      1 MOL1        -0.6735
       4    C2      20.553523   21.709332   22.530875 C.3        1 MOL1        -0.1985
       5    H1      20.579422   21.884727   21.448529 H          1 MOL1         0.0740
       6    H2      20.103325   22.599443   22.985918 H          1 MOL1         0.0740
       7    C3      19.682448   20.466954   22.851373 C.3        1 MOL1        -0.1882
       8    H3      19.689182   20.287641   23.935556 H          1 MOL1         0.0742
       9    H4      18.641553   20.679970   22.572618 H          1 MOL1         0.0742
      10    C4      20.159520   19.199004   22.108208 C.3        1 MOL1        -0.1880
      11    H5      21.195070   18.969417   22.395145 H          1 MOL1         0.0742
      12    H6      20.163522   19.387702   21.025899 H          1 MOL1         0.0742
      13    C5      19.260088   17.982830   22.417068 C.3        1 MOL1        -0.1880
      14    H7      19.256636   17.794759   23.499531 H          1 MOL1         0.0742
      15    H8      18.224432   18.208898   22.128333 H          1 MOL1         0.0742
      16    C6      19.736362   16.716014   21.675862 C.3        1 MOL1        -0.1856
      17    H9      20.771573   16.485717   21.963619 H          1 MOL1         0.0742
      18    H10     19.739535   16.899830   20.592504 H          1 MOL1         0.0742
      19    C7      18.836214   15.503517   21.987212 C.3        1 MOL1        -0.2871
      20    H11     18.839488   15.277537   23.061607 H          1 MOL1         0.0754
      21    H12     19.189148   14.612205   21.452341 H          1 MOL1         0.0754
      22    H13     17.799607   15.694775   21.680192 H          1 MOL1         0.0754
@<TRIPOS>BOND
    1     1     2    1
    2     1     3    2
    3     1     4    1
    4     4     5    1
    5     4     6    1
    6     4     7    1
    7     7     8    1
    8     7     9    1
    9     7    10    1
   10    10    11    1
   11    10    12    1
   12    10    13    1
   13    13    14    1
   14    13    15    1
   15    13    16    1
   16    16    17    1
   17    16    18    1
   18    16    19    1
   19    19    20    1
   20    19    21    1
   21    19    22    1
@<TRIPOS>SUBSTRUCTURE
       1 MOL1            1 RESIDUE      1      MOL     
@<SCITEGIC>MOL_PROPERTY
VConf Rank
SciTegic.value.IntegerValue
269

@<SCITEGIC>MOL_PROPERTY
Conf_Id
SciTegic.value.IntegerValue
43

@<SCITEGIC>MOL_PROPERTY
Delta U+W
SciTegic.value.DoubleValue
-0.129

@<SCITEGIC>MOL_PROPERTY
U+W
SciTegic.value.DoubleValue
-53.289

@<SCITEGIC>MOL_PROPERTY
Grad RMS
SciTegic.value.DoubleValue
0.000000

@<SCITEGIC>MOL_PROPERTY
U
SciTegic.value.DoubleValue
7.937

@<SCITEGIC>MOL_PROPERTY
W
SciTegic.value.DoubleValue
-61.225

@<SCITEGIC>MOL_PROPERTY
W(PB)
SciTegic.value.DoubleValue
-63.523

@<SCITEGIC>MOL_PROPERTY
W(SA)
SciTegic.value.DoubleValue
2.297

@<SCITEGIC>MOL_PROPERTY
Valence
SciTegic.value.DoubleValue
7.358

@<SCITEGIC>MOL_PROPERTY
Coulomb
SciTegic.value.DoubleValue
-0.022

@<SCITEGIC>MOL_PROPERTY
VdW
SciTegic.value.DoubleValue
0.601

@<SCITEGIC>MOL_PROPERTY
VdW6
SciTegic.value.DoubleValue
-7.363

@<SCITEGIC>MOL_PROPERTY
VdW12
SciTegic.value.DoubleValue
7.964

@<SCITEGIC>MOL_PROPERTY
Bond
SciTegic.value.DoubleValue
0.121

@<SCITEGIC>MOL_PROPERTY
Angle
SciTegic.value.DoubleValue
2.425

@<SCITEGIC>MOL_PROPERTY
Pdih
SciTegic.value.DoubleValue
4.811

@<SCITEGIC>MOL_PROPERTY
Idih
SciTegic.value.DoubleValue
0.000

@<SCITEGIC>MOL_PROPERTY
Tether
SciTegic.value.DoubleValue
0.000

@<TRIPOS>MOLECULE
guest-s21_confgen4.mol2 : confsearch ligand conformer 270
          22          21           1
SMALL
USER_CHARGES
 
@<TRIPOS>ATOM
       1    C1      22.873356   20.326413   21.723200 C.2        1 MOL1         0.6145
       2    O1      23.723219   19.860156   22.456166 O.co2      1 MOL1        -0.6735
       3    O2      22.594639   21.508590   21.683611 O.co2      1 MOL1        -0.6735
       4    C2      22.129517   19.376020   20.789076 C.3        1 MOL1        -0.1985
       5    H1      22.876691   18.723285   20.322482 H          1 MOL1         0.0740
       6    H2      21.673199   19.963172   19.982893 H          1 MOL1         0.0740
       7    C3      21.054311   18.510157   21.495626 C.3        1 MOL1        -0.1882
       8    H3      20.671254   17.766554   20.783681 H          1 MOL1         0.0742
       9    H4      21.520909   17.949840   22.317808 H          1 MOL1         0.0742
      10    C4      19.876355   19.350684   22.037403 C.3        1 MOL1        -0.1880
      11    H5      19.421786   19.918791   21.214217 H          1 MOL1         0.0742
      12    H6      20.249568   20.086011   22.763636 H          1 MOL1         0.0742
      13    C5      18.803726   18.465985   22.708396 C.3        1 MOL1        -0.1880
      14    H7      18.426863   17.731630   21.983306 H          1 MOL1         0.0742
      15    H8      19.259051   17.898252   23.531479 H          1 MOL1         0.0742
      16    C6      17.627394   19.304764   23.250377 C.3        1 MOL1        -0.1856
      17    H9      17.168303   19.872887   22.429442 H          1 MOL1         0.0742
      18    H10     18.000394   20.039395   23.977490 H          1 MOL1         0.0742
      19    C7      16.558602   18.418023   23.920252 C.3        1 MOL1        -0.2871
      20    H11     16.145315   17.693721   23.206125 H          1 MOL1         0.0754
      21    H12     15.730243   19.030374   24.299635 H          1 MOL1         0.0754
      22    H13     16.983689   17.861535   24.765842 H          1 MOL1         0.0754
@<TRIPOS>BOND
    1     1     2    1
    2     1     3    2
    3     1     4    1
    4     4     5    1
    5     4     6    1
    6     4     7    1
    7     7     8    1
    8     7     9    1
    9     7    10    1
   10    10    11    1
   11    10    12    1
   12    10    13    1
   13    13    14    1
   14    13    15    1
   15    13    16    1
   16    16    17    1
   17    16    18    1
   18    16    19    1
   19    19    20    1
   20    19    21    1
   21    19    22    1
@<TRIPOS>SUBSTRUCTURE
       1 MOL1            1 RESIDUE      1      MOL     
@<SCITEGIC>MOL_PROPERTY
VConf Rank
SciTegic.value.IntegerValue
270

@<SCITEGIC>MOL_PROPERTY
Conf_Id
SciTegic.value.IntegerValue
44

@<SCITEGIC>MOL_PROPERTY
Delta U+W
SciTegic.value.DoubleValue
-0.155

@<SCITEGIC>MOL_PROPERTY
U+W
SciTegic.value.DoubleValue
-53.314

@<SCITEGIC>MOL_PROPERTY
Grad RMS
SciTegic.value.DoubleValue
0.000000

@<SCITEGIC>MOL_PROPERTY
U
SciTegic.value.DoubleValue
7.937

@<SCITEGIC>MOL_PROPERTY
W
SciTegic.value.DoubleValue
-61.252

@<SCITEGIC>MOL_PROPERTY
W(PB)
SciTegic.value.DoubleValue
-63.556

@<SCITEGIC>MOL_PROPERTY
W(SA)
SciTegic.value.DoubleValue
2.304

@<SCITEGIC>MOL_PROPERTY
Valence
SciTegic.value.DoubleValue
7.358

@<SCITEGIC>MOL_PROPERTY
Coulomb
SciTegic.value.DoubleValue
-0.021

@<SCITEGIC>MOL_PROPERTY
VdW
SciTegic.value.DoubleValue
0.600

@<SCITEGIC>MOL_PROPERTY
VdW6
SciTegic.value.DoubleValue
-7.363

@<SCITEGIC>MOL_PROPERTY
VdW12
SciTegic.value.DoubleValue
7.964

@<SCITEGIC>MOL_PROPERTY
Bond
SciTegic.value.DoubleValue
0.121

@<SCITEGIC>MOL_PROPERTY
Angle
SciTegic.value.DoubleValue
2.425

@<SCITEGIC>MOL_PROPERTY
Pdih
SciTegic.value.DoubleValue
4.811

@<SCITEGIC>MOL_PROPERTY
Idih
SciTegic.value.DoubleValue
0.001

@<SCITEGIC>MOL_PROPERTY
Tether
SciTegic.value.DoubleValue
0.000

@<TRIPOS>MOLECULE
guest-s21_confgen4.mol2 : confsearch ligand conformer 271
          22          21           1
SMALL
USER_CHARGES
 
@<TRIPOS>ATOM
       1    C1      22.923003   19.690222   20.905354 C.2        1 MOL1         0.6145
       2    O1      22.864622   20.569017   20.067957 O.co2      1 MOL1        -0.6735
       3    O2      23.469883   18.620826   20.720473 O.co2      1 MOL1        -0.6735
       4    C2      22.291044   19.953460   22.269408 C.3        1 MOL1        -0.1985
       5    H1      22.604062   20.955077   22.586923 H          1 MOL1         0.0740
       6    H2      22.711764   19.245115   22.993378 H          1 MOL1         0.0740
       7    C3      20.742343   19.869152   22.276036 C.3        1 MOL1        -0.1882
       8    H3      20.379460   20.222430   23.249522 H          1 MOL1         0.0742
       9    H4      20.337483   20.554270   21.518340 H          1 MOL1         0.0742
      10    C4      20.224682   18.434011   22.016019 C.3        1 MOL1        -0.1880
      11    H5      20.596166   17.758442   22.798584 H          1 MOL1         0.0742
      12    H6      20.641011   18.066990   21.067885 H          1 MOL1         0.0742
      13    C5      18.682336   18.339330   21.938371 C.3        1 MOL1        -0.1880
      14    H7      18.311273   19.015231   21.155818 H          1 MOL1         0.0742
      15    H8      18.412279   17.322100   21.623387 H          1 MOL1         0.0742
      16    C6      17.975832   18.653197   23.276565 C.3        1 MOL1        -0.1856
      17    H9      18.166564   19.693535   23.570728 H          1 MOL1         0.0742
      18    H10     18.385934   18.014472   24.070946 H          1 MOL1         0.0742
      19    C7      16.453003   18.432205   23.177088 C.3        1 MOL1        -0.2871
      20    H11     16.012069   19.079280   22.407507 H          1 MOL1         0.0754
      21    H12     15.965547   18.662235   24.133402 H          1 MOL1         0.0754
      22    H13     16.222698   17.389555   22.921753 H          1 MOL1         0.0754
@<TRIPOS>BOND
    1     1     2    1
    2     1     3    2
    3     1     4    1
    4     4     5    1
    5     4     6    1
    6     4     7    1
    7     7     8    1
    8     7     9    1
    9     7    10    1
   10    10    11    1
   11    10    12    1
   12    10    13    1
   13    13    14    1
   14    13    15    1
   15    13    16    1
   16    16    17    1
   17    16    18    1
   18    16    19    1
   19    19    20    1
   20    19    21    1
   21    19    22    1
@<TRIPOS>SUBSTRUCTURE
       1 MOL1            1 RESIDUE      1      MOL     
@<SCITEGIC>MOL_PROPERTY
VConf Rank
SciTegic.value.IntegerValue
271

@<SCITEGIC>MOL_PROPERTY
Conf_Id
SciTegic.value.IntegerValue
53

@<SCITEGIC>MOL_PROPERTY
Delta U+W
SciTegic.value.DoubleValue
0.723

@<SCITEGIC>MOL_PROPERTY
U+W
SciTegic.value.DoubleValue
-52.436

@<SCITEGIC>MOL_PROPERTY
Grad RMS
SciTegic.value.DoubleValue
0.000000

@<SCITEGIC>MOL_PROPERTY
U
SciTegic.value.DoubleValue
8.587

@<SCITEGIC>MOL_PROPERTY
W
SciTegic.value.DoubleValue
-61.022

@<SCITEGIC>MOL_PROPERTY
W(PB)
SciTegic.value.DoubleValue
-63.285

@<SCITEGIC>MOL_PROPERTY
W(SA)
SciTegic.value.DoubleValue
2.263

@<SCITEGIC>MOL_PROPERTY
Valence
SciTegic.value.DoubleValue
7.933

@<SCITEGIC>MOL_PROPERTY
Coulomb
SciTegic.value.DoubleValue
-0.124

@<SCITEGIC>MOL_PROPERTY
VdW
SciTegic.value.DoubleValue
0.778

@<SCITEGIC>MOL_PROPERTY
VdW6
SciTegic.value.DoubleValue
-7.981

@<SCITEGIC>MOL_PROPERTY
VdW12
SciTegic.value.DoubleValue
8.759

@<SCITEGIC>MOL_PROPERTY
Bond
SciTegic.value.DoubleValue
0.160

@<SCITEGIC>MOL_PROPERTY
Angle
SciTegic.value.DoubleValue
2.698

@<SCITEGIC>MOL_PROPERTY
Pdih
SciTegic.value.DoubleValue
5.074

@<SCITEGIC>MOL_PROPERTY
Idih
SciTegic.value.DoubleValue
0.001

@<SCITEGIC>MOL_PROPERTY
Tether
SciTegic.value.DoubleValue
0.000

@<TRIPOS>MOLECULE
guest-s21_confgen4.mol2 : confsearch ligand conformer 272
          22          21           1
SMALL
USER_CHARGES
 
@<TRIPOS>ATOM
       1    C1      19.727010   22.292067   22.853511 C.2        1 MOL1         0.6145
       2    O1      20.597950   22.804778   22.178857 O.co2      1 MOL1        -0.6735
       3    O2      18.939416   22.924619   23.528904 O.co2      1 MOL1        -0.6735
       4    C2      19.601108   20.772929   22.834353 C.3        1 MOL1        -0.1985
       5    H1      19.217452   20.450192   23.809509 H          1 MOL1         0.0740
       6    H2      20.609235   20.358494   22.721864 H          1 MOL1         0.0740
       7    C3      18.678821   20.261370   21.699086 C.3        1 MOL1        -0.1882
       8    H3      17.720794   20.796512   21.755918 H          1 MOL1         0.0742
       9    H4      19.120777   20.524876   20.728264 H          1 MOL1         0.0742
      10    C4      18.394479   18.738944   21.744184 C.3        1 MOL1        -0.1880
      11    H5      17.697787   18.508548   20.926575 H          1 MOL1         0.0742
      12    H6      17.862690   18.481569   22.670420 H          1 MOL1         0.0742
      13    C5      19.647711   17.842749   21.576994 C.3        1 MOL1        -0.1880
      14    H7      19.366158   16.956405   20.992088 H          1 MOL1         0.0742
      15    H8      20.411378   18.367922   20.987105 H          1 MOL1         0.0742
      16    C6      20.241483   17.362190   22.921334 C.3        1 MOL1        -0.1856
      17    H9      19.483732   16.789825   23.473971 H          1 MOL1         0.0742
      18    H10     20.510609   18.217415   23.552624 H          1 MOL1         0.0742
      19    C7      21.487720   16.480284   22.705772 C.3        1 MOL1        -0.2871
      20    H11     21.242204   15.591608   22.109694 H          1 MOL1         0.0754
      21    H12     21.893092   16.141589   23.668057 H          1 MOL1         0.0754
      22    H13     22.276384   17.036983   22.182843 H          1 MOL1         0.0754
@<TRIPOS>BOND
    1     1     2    1
    2     1     3    2
    3     1     4    1
    4     4     5    1
    5     4     6    1
    6     4     7    1
    7     7     8    1
    8     7     9    1
    9     7    10    1
   10    10    11    1
   11    10    12    1
   12    10    13    1
   13    13    14    1
   14    13    15    1
   15    13    16    1
   16    16    17    1
   17    16    18    1
   18    16    19    1
   19    19    20    1
   20    19    21    1
   21    19    22    1
@<TRIPOS>SUBSTRUCTURE
       1 MOL1            1 RESIDUE      1      MOL     
@<SCITEGIC>MOL_PROPERTY
VConf Rank
SciTegic.value.IntegerValue
272

@<SCITEGIC>MOL_PROPERTY
Conf_Id
SciTegic.value.IntegerValue
5

@<SCITEGIC>MOL_PROPERTY
Delta U+W
SciTegic.value.DoubleValue
2.167

@<SCITEGIC>MOL_PROPERTY
U+W
SciTegic.value.DoubleValue
-50.993

@<SCITEGIC>MOL_PROPERTY
Grad RMS
SciTegic.value.DoubleValue
0.000000

@<SCITEGIC>MOL_PROPERTY
U
SciTegic.value.DoubleValue
10.045

@<SCITEGIC>MOL_PROPERTY
W
SciTegic.value.DoubleValue
-61.037

@<SCITEGIC>MOL_PROPERTY
W(PB)
SciTegic.value.DoubleValue
-63.303

@<SCITEGIC>MOL_PROPERTY
W(SA)
SciTegic.value.DoubleValue
2.266

@<SCITEGIC>MOL_PROPERTY
Valence
SciTegic.value.DoubleValue
10.100

@<SCITEGIC>MOL_PROPERTY
Coulomb
SciTegic.value.DoubleValue
-0.883

@<SCITEGIC>MOL_PROPERTY
VdW
SciTegic.value.DoubleValue
0.828

@<SCITEGIC>MOL_PROPERTY
VdW6
SciTegic.value.DoubleValue
-8.177

@<SCITEGIC>MOL_PROPERTY
VdW12
SciTegic.value.DoubleValue
9.005

@<SCITEGIC>MOL_PROPERTY
Bond
SciTegic.value.DoubleValue
0.182

@<SCITEGIC>MOL_PROPERTY
Angle
SciTegic.value.DoubleValue
2.988

@<SCITEGIC>MOL_PROPERTY
Pdih
SciTegic.value.DoubleValue
6.930

@<SCITEGIC>MOL_PROPERTY
Idih
SciTegic.value.DoubleValue
0.001

@<SCITEGIC>MOL_PROPERTY
Tether
SciTegic.value.DoubleValue
0.000

@<TRIPOS>MOLECULE
guest-s21_confgen4.mol2 : confsearch ligand conformer 273
          22          21           1
SMALL
USER_CHARGES
 
@<TRIPOS>ATOM
       1    C1      19.653233   22.229489   22.082555 C.2        1 MOL1         0.6145
       2    O1      18.507669   22.569517   22.303088 O.co2      1 MOL1        -0.6735
       3    O2      20.529890   22.999487   21.743201 O.co2      1 MOL1        -0.6735
       4    C2      20.004932   20.752230   22.216766 C.3        1 MOL1        -0.1985
       5    H1      19.389947   20.337369   23.023249 H          1 MOL1         0.0740
       6    H2      21.053539   20.678279   22.528593 H          1 MOL1         0.0740
       7    C3      19.778366   19.959672   20.904645 C.3        1 MOL1        -0.1882
       8    H3      18.709338   19.978160   20.651483 H          1 MOL1         0.0742
       9    H4      20.296894   20.478208   20.086312 H          1 MOL1         0.0742
      10    C4      20.275984   18.493052   20.950191 C.3        1 MOL1        -0.1880
      11    H5      21.363385   18.468050   21.104752 H          1 MOL1         0.0742
      12    H6      20.105918   18.055414   19.956966 H          1 MOL1         0.0742
      13    C5      19.563298   17.601595   21.998568 C.3        1 MOL1        -0.1880
      14    H7      18.545667   17.973290   22.180864 H          1 MOL1         0.0742
      15    H8      19.449246   16.593121   21.577894 H          1 MOL1         0.0742
      16    C6      20.339652   17.481378   23.330327 C.3        1 MOL1        -0.1856
      17    H9      20.503113   18.471156   23.773029 H          1 MOL1         0.0742
      18    H10     21.333878   17.054745   23.138772 H          1 MOL1         0.0742
      19    C7      19.590945   16.591559   24.342745 C.3        1 MOL1        -0.2871
      20    H11     18.604182   17.010977   24.578851 H          1 MOL1         0.0754
      21    H12     20.157551   16.510245   25.279430 H          1 MOL1         0.0754
      22    H13     19.446843   15.578583   23.944691 H          1 MOL1         0.0754
@<TRIPOS>BOND
    1     1     2    1
    2     1     3    2
    3     1     4    1
    4     4     5    1
    5     4     6    1
    6     4     7    1
    7     7     8    1
    8     7     9    1
    9     7    10    1
   10    10    11    1
   11    10    12    1
   12    10    13    1
   13    13    14    1
   14    13    15    1
   15    13    16    1
   16    16    17    1
   17    16    18    1
   18    16    19    1
   19    19    20    1
   20    19    21    1
   21    19    22    1
@<TRIPOS>SUBSTRUCTURE
       1 MOL1            1 RESIDUE      1      MOL     
@<SCITEGIC>MOL_PROPERTY
VConf Rank
SciTegic.value.IntegerValue
273

@<SCITEGIC>MOL_PROPERTY
Conf_Id
SciTegic.value.IntegerValue
6

@<SCITEGIC>MOL_PROPERTY
Delta U+W
SciTegic.value.DoubleValue
2.118

@<SCITEGIC>MOL_PROPERTY
U+W
SciTegic.value.DoubleValue
-51.042

@<SCITEGIC>MOL_PROPERTY
Grad RMS
SciTegic.value.DoubleValue
0.000000

@<SCITEGIC>MOL_PROPERTY
U
SciTegic.value.DoubleValue
10.045

@<SCITEGIC>MOL_PROPERTY
W
SciTegic.value.DoubleValue
-61.086

@<SCITEGIC>MOL_PROPERTY
W(PB)
SciTegic.value.DoubleValue
-63.356

@<SCITEGIC>MOL_PROPERTY
W(SA)
SciTegic.value.DoubleValue
2.270

@<SCITEGIC>MOL_PROPERTY
Valence
SciTegic.value.DoubleValue
10.100

@<SCITEGIC>MOL_PROPERTY
Coulomb
SciTegic.value.DoubleValue
-0.883

@<SCITEGIC>MOL_PROPERTY
VdW
SciTegic.value.DoubleValue
0.828

@<SCITEGIC>MOL_PROPERTY
VdW6
SciTegic.value.DoubleValue
-8.177

@<SCITEGIC>MOL_PROPERTY
VdW12
SciTegic.value.DoubleValue
9.004

@<SCITEGIC>MOL_PROPERTY
Bond
SciTegic.value.DoubleValue
0.182

@<SCITEGIC>MOL_PROPERTY
Angle
SciTegic.value.DoubleValue
2.988

@<SCITEGIC>MOL_PROPERTY
Pdih
SciTegic.value.DoubleValue
6.930

@<SCITEGIC>MOL_PROPERTY
Idih
SciTegic.value.DoubleValue
0.001

@<SCITEGIC>MOL_PROPERTY
Tether
SciTegic.value.DoubleValue
0.000

@<TRIPOS>MOLECULE
guest-s21_confgen4.mol2 : confsearch ligand conformer 274
          22          21           1
SMALL
USER_CHARGES
 
@<TRIPOS>ATOM
       1    C1      21.357864   18.339165   24.600656 C.2        1 MOL1         0.6145
       2    O1      21.188912   17.159595   24.840581 O.co2      1 MOL1        -0.6735
       3    O2      21.023317   19.231201   25.355246 O.co2      1 MOL1        -0.6735
       4    C2      22.092465   18.720038   23.316618 C.3        1 MOL1        -0.1985
       5    H1      23.101798   18.301414   23.403417 H          1 MOL1         0.0740
       6    H2      22.207007   19.810208   23.281252 H          1 MOL1         0.0740
       7    C3      21.442481   18.203994   22.001970 C.3        1 MOL1        -0.1882
       8    H3      22.212522   18.208577   21.218748 H          1 MOL1         0.0742
       9    H4      21.138984   17.154558   22.120900 H          1 MOL1         0.0742
      10    C4      20.247641   19.048067   21.493235 C.3        1 MOL1        -0.1880
      11    H5      19.975118   18.686168   20.492368 H          1 MOL1         0.0742
      12    H6      20.560225   20.093824   21.368687 H          1 MOL1         0.0742
      13    C5      18.998655   18.983876   22.401211 C.3        1 MOL1        -0.1880
      14    H7      18.747247   17.934836   22.609433 H          1 MOL1         0.0742
      15    H8      19.213834   19.460411   23.365926 H          1 MOL1         0.0742
      16    C6      17.786695   19.687641   21.754825 C.3        1 MOL1        -0.1856
      17    H9      17.553430   19.214937   20.790722 H          1 MOL1         0.0742
      18    H10     18.037239   20.736607   21.544324 H          1 MOL1         0.0742
      19    C7      16.544357   19.630432   22.666275 C.3        1 MOL1        -0.2871
      20    H11     16.252936   18.591273   22.867747 H          1 MOL1         0.0754
      21    H12     15.692871   20.135869   22.192429 H          1 MOL1         0.0754
      22    H13     16.739889   20.123838   23.627430 H          1 MOL1         0.0754
@<TRIPOS>BOND
    1     1     2    1
    2     1     3    2
    3     1     4    1
    4     4     5    1
    5     4     6    1
    6     4     7    1
    7     7     8    1
    8     7     9    1
    9     7    10    1
   10    10    11    1
   11    10    12    1
   12    10    13    1
   13    13    14    1
   14    13    15    1
   15    13    16    1
   16    16    17    1
   17    16    18    1
   18    16    19    1
   19    19    20    1
   20    19    21    1
   21    19    22    1
@<TRIPOS>SUBSTRUCTURE
       1 MOL1            1 RESIDUE      1      MOL     
@<SCITEGIC>MOL_PROPERTY
VConf Rank
SciTegic.value.IntegerValue
274

@<SCITEGIC>MOL_PROPERTY
Conf_Id
SciTegic.value.IntegerValue
8

@<SCITEGIC>MOL_PROPERTY
Delta U+W
SciTegic.value.DoubleValue
1.886

@<SCITEGIC>MOL_PROPERTY
U+W
SciTegic.value.DoubleValue
-51.274

@<SCITEGIC>MOL_PROPERTY
Grad RMS
SciTegic.value.DoubleValue
0.000000

@<SCITEGIC>MOL_PROPERTY
U
SciTegic.value.DoubleValue
11.237

@<SCITEGIC>MOL_PROPERTY
W
SciTegic.value.DoubleValue
-62.510

@<SCITEGIC>MOL_PROPERTY
W(PB)
SciTegic.value.DoubleValue
-64.777

@<SCITEGIC>MOL_PROPERTY
W(SA)
SciTegic.value.DoubleValue
2.267

@<SCITEGIC>MOL_PROPERTY
Valence
SciTegic.value.DoubleValue
9.029

@<SCITEGIC>MOL_PROPERTY
Coulomb
SciTegic.value.DoubleValue
1.667

@<SCITEGIC>MOL_PROPERTY
VdW
SciTegic.value.DoubleValue
0.540

@<SCITEGIC>MOL_PROPERTY
VdW6
SciTegic.value.DoubleValue
-8.825

@<SCITEGIC>MOL_PROPERTY
VdW12
SciTegic.value.DoubleValue
9.365

@<SCITEGIC>MOL_PROPERTY
Bond
SciTegic.value.DoubleValue
0.186

@<SCITEGIC>MOL_PROPERTY
Angle
SciTegic.value.DoubleValue
3.195

@<SCITEGIC>MOL_PROPERTY
Pdih
SciTegic.value.DoubleValue
5.642

@<SCITEGIC>MOL_PROPERTY
Idih
SciTegic.value.DoubleValue
0.007

@<SCITEGIC>MOL_PROPERTY
Tether
SciTegic.value.DoubleValue
0.000

@<TRIPOS>MOLECULE
guest-s21_confgen4.mol2 : confsearch ligand conformer 275
          22          21           1
SMALL
USER_CHARGES
 
@<TRIPOS>ATOM
       1    C1      21.116688   18.409508   19.768115 C.2        1 MOL1         0.6145
       2    O1      20.562153   17.330539   19.696831 O.co2      1 MOL1        -0.6735
       3    O2      22.303531   18.570132   19.560966 O.co2      1 MOL1        -0.6735
       4    C2      20.273464   19.635713   20.106579 C.3        1 MOL1        -0.1985
       5    H1      19.215120   19.378665   19.985991 H          1 MOL1         0.0740
       6    H2      20.493459   20.400063   19.352195 H          1 MOL1         0.0740
       7    C3      20.540247   20.219926   21.521029 C.3        1 MOL1        -0.1882
       8    H3      21.590342   20.538632   21.576295 H          1 MOL1         0.0742
       9    H4      19.936443   21.127416   21.655991 H          1 MOL1         0.0742
      10    C4      20.256587   19.240981   22.687191 C.3        1 MOL1        -0.1880
      11    H5      20.569071   19.726665   23.620174 H          1 MOL1         0.0742
      12    H6      20.882719   18.344684   22.579797 H          1 MOL1         0.0742
      13    C5      18.768982   18.825185   22.794852 C.3        1 MOL1        -0.1880
      14    H7      18.137757   19.719806   22.882598 H          1 MOL1         0.0742
      15    H8      18.466956   18.317282   21.869786 H          1 MOL1         0.0742
      16    C6      18.482108   17.870663   23.977473 C.3        1 MOL1        -0.1856
      17    H9      19.123571   16.981865   23.900394 H          1 MOL1         0.0742
      18    H10     17.446359   17.513084   23.896628 H          1 MOL1         0.0742
      19    C7      18.670592   18.531397   25.360483 C.3        1 MOL1        -0.2871
      20    H11     19.719721   18.797283   25.539322 H          1 MOL1         0.0754
      21    H12     18.362445   17.843927   26.158811 H          1 MOL1         0.0754
      22    H13     18.064186   19.442412   25.446635 H          1 MOL1         0.0754
@<TRIPOS>BOND
    1     1     2    1
    2     1     3    2
    3     1     4    1
    4     4     5    1
    5     4     6    1
    6     4     7    1
    7     7     8    1
    8     7     9    1
    9     7    10    1
   10    10    11    1
   11    10    12    1
   12    10    13    1
   13    13    14    1
   14    13    15    1
   15    13    16    1
   16    16    17    1
   17    16    18    1
   18    16    19    1
   19    19    20    1
   20    19    21    1
   21    19    22    1
@<TRIPOS>SUBSTRUCTURE
       1 MOL1            1 RESIDUE      1      MOL     
@<SCITEGIC>MOL_PROPERTY
VConf Rank
SciTegic.value.IntegerValue
275

@<SCITEGIC>MOL_PROPERTY
Conf_Id
SciTegic.value.IntegerValue
93

@<SCITEGIC>MOL_PROPERTY
Delta U+W
SciTegic.value.DoubleValue
1.836

@<SCITEGIC>MOL_PROPERTY
U+W
SciTegic.value.DoubleValue
-51.323

@<SCITEGIC>MOL_PROPERTY
Grad RMS
SciTegic.value.DoubleValue
0.000000

@<SCITEGIC>MOL_PROPERTY
U
SciTegic.value.DoubleValue
10.427

@<SCITEGIC>MOL_PROPERTY
W
SciTegic.value.DoubleValue
-61.751

@<SCITEGIC>MOL_PROPERTY
W(PB)
SciTegic.value.DoubleValue
-63.980

@<SCITEGIC>MOL_PROPERTY
W(SA)
SciTegic.value.DoubleValue
2.230

@<SCITEGIC>MOL_PROPERTY
Valence
SciTegic.value.DoubleValue
8.446

@<SCITEGIC>MOL_PROPERTY
Coulomb
SciTegic.value.DoubleValue
1.306

@<SCITEGIC>MOL_PROPERTY
VdW
SciTegic.value.DoubleValue
0.676

@<SCITEGIC>MOL_PROPERTY
VdW6
SciTegic.value.DoubleValue
-8.928

@<SCITEGIC>MOL_PROPERTY
VdW12
SciTegic.value.DoubleValue
9.604

@<SCITEGIC>MOL_PROPERTY
Bond
SciTegic.value.DoubleValue
0.209

@<SCITEGIC>MOL_PROPERTY
Angle
SciTegic.value.DoubleValue
3.066

@<SCITEGIC>MOL_PROPERTY
Pdih
SciTegic.value.DoubleValue
5.170

@<SCITEGIC>MOL_PROPERTY
Idih
SciTegic.value.DoubleValue
0.001

@<SCITEGIC>MOL_PROPERTY
Tether
SciTegic.value.DoubleValue
0.000

@<TRIPOS>MOLECULE
guest-s21_confgen4.mol2 : confsearch ligand conformer 276
          22          21           1
SMALL
USER_CHARGES
 
@<TRIPOS>ATOM
       1    C1      22.728078   19.775580   22.305635 C.2        1 MOL1         0.6145
       2    O1      23.367166   19.929417   21.283282 O.co2      1 MOL1        -0.6735
       3    O2      22.949201   18.891624   23.109683 O.co2      1 MOL1        -0.6735
       4    C2      21.606891   20.765703   22.608555 C.3        1 MOL1        -0.1985
       5    H1      22.022406   21.773372   22.491619 H          1 MOL1         0.0740
       6    H2      21.326998   20.667775   23.663438 H          1 MOL1         0.0740
       7    C3      20.361379   20.615443   21.692437 C.3        1 MOL1        -0.1882
       8    H3      19.633898   21.399670   21.941618 H          1 MOL1         0.0742
       9    H4      20.666660   20.798724   20.652948 H          1 MOL1         0.0742
      10    C4      19.667065   19.233156   21.769501 C.3        1 MOL1        -0.1880
      11    H5      20.378000   18.444651   21.487087 H          1 MOL1         0.0742
      12    H6      18.868341   19.213391   21.017407 H          1 MOL1         0.0742
      13    C5      19.071065   18.919693   23.163764 C.3        1 MOL1        -0.1880
      14    H7      19.876626   18.915347   23.909411 H          1 MOL1         0.0742
      15    H8      18.374394   19.716111   23.458488 H          1 MOL1         0.0742
      16    C6      18.352633   17.551736   23.231152 C.3        1 MOL1        -0.1856
      17    H9      18.089625   17.344590   24.277619 H          1 MOL1         0.0742
      18    H10     19.043027   16.754882   22.921698 H          1 MOL1         0.0742
      19    C7      17.067779   17.489397   22.376710 C.3        1 MOL1        -0.2871
      20    H11     17.292761   17.569475   21.306046 H          1 MOL1         0.0754
      21    H12     16.377302   18.299303   22.645770 H          1 MOL1         0.0754
      22    H13     16.547885   16.535771   22.535471 H          1 MOL1         0.0754
@<TRIPOS>BOND
    1     1     2    1
    2     1     3    2
    3     1     4    1
    4     4     5    1
    5     4     6    1
    6     4     7    1
    7     7     8    1
    8     7     9    1
    9     7    10    1
   10    10    11    1
   11    10    12    1
   12    10    13    1
   13    13    14    1
   14    13    15    1
   15    13    16    1
   16    16    17    1
   17    16    18    1
   18    16    19    1
   19    19    20    1
   20    19    21    1
   21    19    22    1
@<TRIPOS>SUBSTRUCTURE
       1 MOL1            1 RESIDUE      1      MOL     
@<SCITEGIC>MOL_PROPERTY
VConf Rank
SciTegic.value.IntegerValue
276

@<SCITEGIC>MOL_PROPERTY
Conf_Id
SciTegic.value.IntegerValue
70

@<SCITEGIC>MOL_PROPERTY
Delta U+W
SciTegic.value.DoubleValue
1.803

@<SCITEGIC>MOL_PROPERTY
U+W
SciTegic.value.DoubleValue
-51.356

@<SCITEGIC>MOL_PROPERTY
Grad RMS
SciTegic.value.DoubleValue
0.000000

@<SCITEGIC>MOL_PROPERTY
U
SciTegic.value.DoubleValue
10.428

@<SCITEGIC>MOL_PROPERTY
W
SciTegic.value.DoubleValue
-61.784

@<SCITEGIC>MOL_PROPERTY
W(PB)
SciTegic.value.DoubleValue
-64.014

@<SCITEGIC>MOL_PROPERTY
W(SA)
SciTegic.value.DoubleValue
2.230

@<SCITEGIC>MOL_PROPERTY
Valence
SciTegic.value.DoubleValue
8.445

@<SCITEGIC>MOL_PROPERTY
Coulomb
SciTegic.value.DoubleValue
1.306

@<SCITEGIC>MOL_PROPERTY
VdW
SciTegic.value.DoubleValue
0.676

@<SCITEGIC>MOL_PROPERTY
VdW6
SciTegic.value.DoubleValue
-8.929

@<SCITEGIC>MOL_PROPERTY
VdW12
SciTegic.value.DoubleValue
9.605

@<SCITEGIC>MOL_PROPERTY
Bond
SciTegic.value.DoubleValue
0.209

@<SCITEGIC>MOL_PROPERTY
Angle
SciTegic.value.DoubleValue
3.066

@<SCITEGIC>MOL_PROPERTY
Pdih
SciTegic.value.DoubleValue
5.170

@<SCITEGIC>MOL_PROPERTY
Idih
SciTegic.value.DoubleValue
0.001

@<SCITEGIC>MOL_PROPERTY
Tether
SciTegic.value.DoubleValue
0.000

@<TRIPOS>MOLECULE
guest-s21_confgen4.mol2 : confsearch ligand conformer 277
          22          21           1
SMALL
USER_CHARGES
 
@<TRIPOS>ATOM
       1    C1      18.974924   17.826686   19.362625 C.2        1 MOL1         0.6145
       2    O1      19.941553   18.134663   18.693528 O.co2      1 MOL1        -0.6735
       3    O2      17.835658   18.145688   19.084792 O.co2      1 MOL1        -0.6735
       4    C2      19.204399   16.974948   20.608008 C.3        1 MOL1        -0.1985
       5    H1      19.898653   16.172044   20.333428 H          1 MOL1         0.0740
       6    H2      18.257417   16.495136   20.883406 H          1 MOL1         0.0740
       7    C3      19.776458   17.764408   21.814028 C.3        1 MOL1        -0.1882
       8    H3      20.031757   17.057205   22.614623 H          1 MOL1         0.0742
       9    H4      20.712432   18.250651   21.508823 H          1 MOL1         0.0742
      10    C4      18.780397   18.815599   22.359393 C.3        1 MOL1        -0.1880
      11    H5      17.823234   18.321728   22.575659 H          1 MOL1         0.0742
      12    H6      18.572045   19.568480   21.586693 H          1 MOL1         0.0742
      13    C5      19.271465   19.520195   23.646220 C.3        1 MOL1        -0.1880
      14    H7      18.458400   20.152346   24.028581 H          1 MOL1         0.0742
      15    H8      19.473048   18.769985   24.423017 H          1 MOL1         0.0742
      16    C6      20.526603   20.394997   23.428232 C.3        1 MOL1        -0.1856
      17    H9      20.342769   21.110462   22.614854 H          1 MOL1         0.0742
      18    H10     21.374613   19.769770   23.119479 H          1 MOL1         0.0742
      19    C7      20.910014   21.163025   24.709194 C.3        1 MOL1        -0.2871
      20    H11     20.097233   21.829479   25.026331 H          1 MOL1         0.0754
      21    H12     21.804229   21.776640   24.539146 H          1 MOL1         0.0754
      22    H13     21.126148   20.469663   25.532546 H          1 MOL1         0.0754
@<TRIPOS>BOND
    1     1     2    1
    2     1     3    2
    3     1     4    1
    4     4     5    1
    5     4     6    1
    6     4     7    1
    7     7     8    1
    8     7     9    1
    9     7    10    1
   10    10    11    1
   11    10    12    1
   12    10    13    1
   13    13    14    1
   14    13    15    1
   15    13    16    1
   16    16    17    1
   17    16    18    1
   18    16    19    1
   19    19    20    1
   20    19    21    1
   21    19    22    1
@<TRIPOS>SUBSTRUCTURE
       1 MOL1            1 RESIDUE      1      MOL     
@<SCITEGIC>MOL_PROPERTY
VConf Rank
SciTegic.value.IntegerValue
277

@<SCITEGIC>MOL_PROPERTY
Conf_Id
SciTegic.value.IntegerValue
85

@<SCITEGIC>MOL_PROPERTY
Delta U+W
SciTegic.value.DoubleValue
0.707

@<SCITEGIC>MOL_PROPERTY
U+W
SciTegic.value.DoubleValue
-52.452

@<SCITEGIC>MOL_PROPERTY
Grad RMS
SciTegic.value.DoubleValue
0.000000

@<SCITEGIC>MOL_PROPERTY
U
SciTegic.value.DoubleValue
8.925

@<SCITEGIC>MOL_PROPERTY
W
SciTegic.value.DoubleValue
-61.378

@<SCITEGIC>MOL_PROPERTY
W(PB)
SciTegic.value.DoubleValue
-63.661

@<SCITEGIC>MOL_PROPERTY
W(SA)
SciTegic.value.DoubleValue
2.283

@<SCITEGIC>MOL_PROPERTY
Valence
SciTegic.value.DoubleValue
7.881

@<SCITEGIC>MOL_PROPERTY
Coulomb
SciTegic.value.DoubleValue
0.349

@<SCITEGIC>MOL_PROPERTY
VdW
SciTegic.value.DoubleValue
0.695

@<SCITEGIC>MOL_PROPERTY
VdW6
SciTegic.value.DoubleValue
-8.049

@<SCITEGIC>MOL_PROPERTY
VdW12
SciTegic.value.DoubleValue
8.743

@<SCITEGIC>MOL_PROPERTY
Bond
SciTegic.value.DoubleValue
0.156

@<SCITEGIC>MOL_PROPERTY
Angle
SciTegic.value.DoubleValue
2.660

@<SCITEGIC>MOL_PROPERTY
Pdih
SciTegic.value.DoubleValue
5.064

@<SCITEGIC>MOL_PROPERTY
Idih
SciTegic.value.DoubleValue
0.001

@<SCITEGIC>MOL_PROPERTY
Tether
SciTegic.value.DoubleValue
0.000

@<TRIPOS>MOLECULE
guest-s21_confgen4.mol2 : confsearch ligand conformer 278
          22          21           1
SMALL
USER_CHARGES
 
@<TRIPOS>ATOM
       1    C1      20.060156   19.873701   19.203344 C.2        1 MOL1         0.6145
       2    O1      21.208036   20.026147   18.834465 O.co2      1 MOL1        -0.6735
       3    O2      19.222901   19.269467   18.562347 O.co2      1 MOL1        -0.6735
       4    C2      19.638963   20.493869   20.532774 C.3        1 MOL1        -0.1985
       5    H1      18.683448   21.005088   20.366525 H          1 MOL1         0.0740
       6    H2      20.368422   21.265657   20.806796 H          1 MOL1         0.0740
       7    C3      19.483224   19.470229   21.687587 C.3        1 MOL1        -0.1882
       8    H3      19.031063   19.983509   22.545491 H          1 MOL1         0.0742
       9    H4      18.786169   18.677892   21.381653 H          1 MOL1         0.0742
      10    C4      20.832006   18.847817   22.117089 C.3        1 MOL1        -0.1880
      11    H5      21.491970   19.637183   22.501860 H          1 MOL1         0.0742
      12    H6      21.334945   18.431652   21.233516 H          1 MOL1         0.0742
      13    C5      20.705305   17.721645   23.173597 C.3        1 MOL1        -0.1880
      14    H7      20.123384   16.884778   22.763782 H          1 MOL1         0.0742
      15    H8      21.713296   17.323640   23.353633 H          1 MOL1         0.0742
      16    C6      20.115034   18.170779   24.533657 C.3        1 MOL1        -0.1856
      17    H9      20.327414   19.234452   24.708882 H          1 MOL1         0.0742
      18    H10     20.625702   17.621384   25.336578 H          1 MOL1         0.0742
      19    C7      18.599331   17.898913   24.659206 C.3        1 MOL1        -0.2871
      20    H11     18.023951   18.431435   23.893529 H          1 MOL1         0.0754
      21    H12     18.231245   18.223239   25.641114 H          1 MOL1         0.0754
      22    H13     18.385759   16.826870   24.558224 H          1 MOL1         0.0754
@<TRIPOS>BOND
    1     1     2    1
    2     1     3    2
    3     1     4    1
    4     4     5    1
    5     4     6    1
    6     4     7    1
    7     7     8    1
    8     7     9    1
    9     7    10    1
   10    10    11    1
   11    10    12    1
   12    10    13    1
   13    13    14    1
   14    13    15    1
   15    13    16    1
   16    16    17    1
   17    16    18    1
   18    16    19    1
   19    19    20    1
   20    19    21    1
   21    19    22    1
@<TRIPOS>SUBSTRUCTURE
       1 MOL1            1 RESIDUE      1      MOL     
@<SCITEGIC>MOL_PROPERTY
VConf Rank
SciTegic.value.IntegerValue
278

@<SCITEGIC>MOL_PROPERTY
Conf_Id
SciTegic.value.IntegerValue
82

@<SCITEGIC>MOL_PROPERTY
Delta U+W
SciTegic.value.DoubleValue
3.438

@<SCITEGIC>MOL_PROPERTY
U+W
SciTegic.value.DoubleValue
-49.721

@<SCITEGIC>MOL_PROPERTY
Grad RMS
SciTegic.value.DoubleValue
0.000000

@<SCITEGIC>MOL_PROPERTY
U
SciTegic.value.DoubleValue
11.773

@<SCITEGIC>MOL_PROPERTY
W
SciTegic.value.DoubleValue
-61.495

@<SCITEGIC>MOL_PROPERTY
W(PB)
SciTegic.value.DoubleValue
-63.749

@<SCITEGIC>MOL_PROPERTY
W(SA)
SciTegic.value.DoubleValue
2.254

@<SCITEGIC>MOL_PROPERTY
Valence
SciTegic.value.DoubleValue
10.419

@<SCITEGIC>MOL_PROPERTY
Coulomb
SciTegic.value.DoubleValue
0.565

@<SCITEGIC>MOL_PROPERTY
VdW
SciTegic.value.DoubleValue
0.789

@<SCITEGIC>MOL_PROPERTY
VdW6
SciTegic.value.DoubleValue
-8.847

@<SCITEGIC>MOL_PROPERTY
VdW12
SciTegic.value.DoubleValue
9.636

@<SCITEGIC>MOL_PROPERTY
Bond
SciTegic.value.DoubleValue
0.200

@<SCITEGIC>MOL_PROPERTY
Angle
SciTegic.value.DoubleValue
3.187

@<SCITEGIC>MOL_PROPERTY
Pdih
SciTegic.value.DoubleValue
7.032

@<SCITEGIC>MOL_PROPERTY
Idih
SciTegic.value.DoubleValue
0.001

@<SCITEGIC>MOL_PROPERTY
Tether
SciTegic.value.DoubleValue
0.000

@<TRIPOS>MOLECULE
guest-s21_confgen4.mol2 : confsearch ligand conformer 279
          22          21           1
SMALL
USER_CHARGES
 
@<TRIPOS>ATOM
       1    C1      18.397672   20.480616   24.892532 C.2        1 MOL1         0.6145
       2    O1      17.243407   20.102523   24.933649 O.co2      1 MOL1        -0.6735
       3    O2      19.105744   20.585907   25.874615 O.co2      1 MOL1        -0.6735
       4    C2      18.980565   20.865774   23.535592 C.3        1 MOL1        -0.1985
       5    H1      19.867052   21.490523   23.698951 H          1 MOL1         0.0740
       6    H2      18.238993   21.493732   23.027919 H          1 MOL1         0.0740
       7    C3      19.337301   19.655592   22.633433 C.3        1 MOL1        -0.1882
       8    H3      18.453083   19.013828   22.516921 H          1 MOL1         0.0742
       9    H4      19.595407   20.032643   21.635876 H          1 MOL1         0.0742
      10    C4      20.519342   18.827494   23.188513 C.3        1 MOL1        -0.1880
      11    H5      20.305157   18.545068   24.228322 H          1 MOL1         0.0742
      12    H6      21.420694   19.454567   23.220827 H          1 MOL1         0.0742
      13    C5      20.819967   17.533779   22.390734 C.3        1 MOL1        -0.1880
      14    H7      21.633385   17.008206   22.909376 H          1 MOL1         0.0742
      15    H8      19.955171   16.857419   22.430619 H          1 MOL1         0.0742
      16    C6      21.254724   17.763205   20.921636 C.3        1 MOL1        -0.1856
      17    H9      22.018403   17.017445   20.660993 H          1 MOL1         0.0742
      18    H10     21.737748   18.744369   20.815731 H          1 MOL1         0.0742
      19    C7      20.091534   17.626679   19.913977 C.3        1 MOL1        -0.2871
      20    H11     19.649882   16.622820   19.961908 H          1 MOL1         0.0754
      21    H12     20.450741   17.786530   18.889167 H          1 MOL1         0.0754
      22    H13     19.295996   18.355163   20.107198 H          1 MOL1         0.0754
@<TRIPOS>BOND
    1     1     2    1
    2     1     3    2
    3     1     4    1
    4     4     5    1
    5     4     6    1
    6     4     7    1
    7     7     8    1
    8     7     9    1
    9     7    10    1
   10    10    11    1
   11    10    12    1
   12    10    13    1
   13    13    14    1
   14    13    15    1
   15    13    16    1
   16    16    17    1
   17    16    18    1
   18    16    19    1
   19    19    20    1
   20    19    21    1
   21    19    22    1
@<TRIPOS>SUBSTRUCTURE
       1 MOL1            1 RESIDUE      1      MOL     
@<SCITEGIC>MOL_PROPERTY
VConf Rank
SciTegic.value.IntegerValue
279

@<SCITEGIC>MOL_PROPERTY
Conf_Id
SciTegic.value.IntegerValue
94

@<SCITEGIC>MOL_PROPERTY
Delta U+W
SciTegic.value.DoubleValue
3.471

@<SCITEGIC>MOL_PROPERTY
U+W
SciTegic.value.DoubleValue
-49.688

@<SCITEGIC>MOL_PROPERTY
Grad RMS
SciTegic.value.DoubleValue
0.000000

@<SCITEGIC>MOL_PROPERTY
U
SciTegic.value.DoubleValue
11.773

@<SCITEGIC>MOL_PROPERTY
W
SciTegic.value.DoubleValue
-61.461

@<SCITEGIC>MOL_PROPERTY
W(PB)
SciTegic.value.DoubleValue
-63.710

@<SCITEGIC>MOL_PROPERTY
W(SA)
SciTegic.value.DoubleValue
2.248

@<SCITEGIC>MOL_PROPERTY
Valence
SciTegic.value.DoubleValue
10.419

@<SCITEGIC>MOL_PROPERTY
Coulomb
SciTegic.value.DoubleValue
0.566

@<SCITEGIC>MOL_PROPERTY
VdW
SciTegic.value.DoubleValue
0.789

@<SCITEGIC>MOL_PROPERTY
VdW6
SciTegic.value.DoubleValue
-8.847

@<SCITEGIC>MOL_PROPERTY
VdW12
SciTegic.value.DoubleValue
9.636

@<SCITEGIC>MOL_PROPERTY
Bond
SciTegic.value.DoubleValue
0.200

@<SCITEGIC>MOL_PROPERTY
Angle
SciTegic.value.DoubleValue
3.187

@<SCITEGIC>MOL_PROPERTY
Pdih
SciTegic.value.DoubleValue
7.032

@<SCITEGIC>MOL_PROPERTY
Idih
SciTegic.value.DoubleValue
0.001

@<SCITEGIC>MOL_PROPERTY
Tether
SciTegic.value.DoubleValue
0.000

@<TRIPOS>MOLECULE
guest-s21_confgen4.mol2 : confsearch ligand conformer 280
          22          21           1
SMALL
USER_CHARGES
 
@<TRIPOS>ATOM
       1    C1      21.351934   20.581382   19.828662 C.2        1 MOL1         0.6145
       2    O1      21.946153   20.144986   18.862660 O.co2      1 MOL1        -0.6735
       3    O2      21.600453   21.653837   20.343109 O.co2      1 MOL1        -0.6735
       4    C2      20.246964   19.727500   20.440103 C.3        1 MOL1        -0.1985
       5    H1      19.770552   19.157520   19.633638 H          1 MOL1         0.0740
       6    H2      19.490252   20.405302   20.851205 H          1 MOL1         0.0740
       7    C3      20.769888   18.765689   21.538250 C.3        1 MOL1        -0.1882
       8    H3      21.582341   18.157615   21.117224 H          1 MOL1         0.0742
       9    H4      21.218117   19.348244   22.354061 H          1 MOL1         0.0742
      10    C4      19.681131   17.815972   22.097768 C.3        1 MOL1        -0.1880
      11    H5      20.142722   17.137050   22.826789 H          1 MOL1         0.0742
      12    H6      19.317796   17.174664   21.283361 H          1 MOL1         0.0742
      13    C5      18.464012   18.520193   22.753407 C.3        1 MOL1        -0.1880
      14    H7      17.905548   19.071068   21.985354 H          1 MOL1         0.0742
      15    H8      17.774270   17.751145   23.126726 H          1 MOL1         0.0742
      16    C6      18.807997   19.486520   23.913499 C.3        1 MOL1        -0.1856
      17    H9      17.876977   19.942010   24.277694 H          1 MOL1         0.0742
      18    H10     19.427429   20.314918   23.544631 H          1 MOL1         0.0742
      19    C7      19.516982   18.791744   25.096052 C.3        1 MOL1        -0.2871
      20    H11     18.921760   17.948826   25.470425 H          1 MOL1         0.0754
      21    H12     19.663906   19.497060   25.924114 H          1 MOL1         0.0754
      22    H13     20.503978   18.413123   24.802045 H          1 MOL1         0.0754
@<TRIPOS>BOND
    1     1     2    1
    2     1     3    2
    3     1     4    1
    4     4     5    1
    5     4     6    1
    6     4     7    1
    7     7     8    1
    8     7     9    1
    9     7    10    1
   10    10    11    1
   11    10    12    1
   12    10    13    1
   13    13    14    1
   14    13    15    1
   15    13    16    1
   16    16    17    1
   17    16    18    1
   18    16    19    1
   19    19    20    1
   20    19    21    1
   21    19    22    1
@<TRIPOS>SUBSTRUCTURE
       1 MOL1            1 RESIDUE      1      MOL     
@<SCITEGIC>MOL_PROPERTY
VConf Rank
SciTegic.value.IntegerValue
280

@<SCITEGIC>MOL_PROPERTY
Conf_Id
SciTegic.value.IntegerValue
56

@<SCITEGIC>MOL_PROPERTY
Delta U+W
SciTegic.value.DoubleValue
0.853

@<SCITEGIC>MOL_PROPERTY
U+W
SciTegic.value.DoubleValue
-52.307

@<SCITEGIC>MOL_PROPERTY
Grad RMS
SciTegic.value.DoubleValue
0.000000

@<SCITEGIC>MOL_PROPERTY
U
SciTegic.value.DoubleValue
8.874

@<SCITEGIC>MOL_PROPERTY
W
SciTegic.value.DoubleValue
-61.181

@<SCITEGIC>MOL_PROPERTY
W(PB)
SciTegic.value.DoubleValue
-63.413

@<SCITEGIC>MOL_PROPERTY
W(SA)
SciTegic.value.DoubleValue
2.232

@<SCITEGIC>MOL_PROPERTY
Valence
SciTegic.value.DoubleValue
8.479

@<SCITEGIC>MOL_PROPERTY
Coulomb
SciTegic.value.DoubleValue
-0.357

@<SCITEGIC>MOL_PROPERTY
VdW
SciTegic.value.DoubleValue
0.753

@<SCITEGIC>MOL_PROPERTY
VdW6
SciTegic.value.DoubleValue
-9.081

@<SCITEGIC>MOL_PROPERTY
VdW12
SciTegic.value.DoubleValue
9.833

@<SCITEGIC>MOL_PROPERTY
Bond
SciTegic.value.DoubleValue
0.221

@<SCITEGIC>MOL_PROPERTY
Angle
SciTegic.value.DoubleValue
3.208

@<SCITEGIC>MOL_PROPERTY
Pdih
SciTegic.value.DoubleValue
5.050

@<SCITEGIC>MOL_PROPERTY
Idih
SciTegic.value.DoubleValue
0.000

@<SCITEGIC>MOL_PROPERTY
Tether
SciTegic.value.DoubleValue
0.000

@<TRIPOS>MOLECULE
guest-s21_confgen4.mol2 : confsearch ligand conformer 281
          22          21           1
SMALL
USER_CHARGES
 
@<TRIPOS>ATOM
       1    C1      20.251895   22.884421   23.027510 C.2        1 MOL1         0.6145
       2    O1      20.920157   22.659465   24.018077 O.co2      1 MOL1        -0.6735
       3    O2      19.964857   24.006806   22.661745 O.co2      1 MOL1        -0.6735
       4    C2      19.733290   21.720509   22.181411 C.3        1 MOL1        -0.1985
       5    H1      20.107378   21.865799   21.161157 H          1 MOL1         0.0740
       6    H2      18.641335   21.808584   22.138447 H          1 MOL1         0.0740
       7    C3      20.125864   20.306958   22.687540 C.3        1 MOL1        -0.1882
       8    H3      21.220860   20.227583   22.734144 H          1 MOL1         0.0742
       9    H4      19.753336   20.170235   23.712244 H          1 MOL1         0.0742
      10    C4      19.562595   19.194092   21.777172 C.3        1 MOL1        -0.1880
      11    H5      19.936368   19.332879   20.753374 H          1 MOL1         0.0742
      12    H6      18.467856   19.275572   21.732030 H          1 MOL1         0.0742
      13    C5      19.954172   17.788870   22.282471 C.3        1 MOL1        -0.1880
      14    H7      21.048865   17.706925   22.327841 H          1 MOL1         0.0742
      15    H8      19.580568   17.649606   23.306264 H          1 MOL1         0.0742
      16    C6      19.391673   16.676283   21.373159 C.3        1 MOL1        -0.1856
      17    H9      19.764934   16.811122   20.348479 H          1 MOL1         0.0742
      18    H10     18.296539   16.753853   21.326890 H          1 MOL1         0.0742
      19    C7      19.784852   15.274627   21.881200 C.3        1 MOL1        -0.2871
      20    H11     20.876262   15.158310   21.907695 H          1 MOL1         0.0754
      21    H12     19.376939   14.496190   21.223374 H          1 MOL1         0.0754
      22    H13     19.396812   15.100587   22.893397 H          1 MOL1         0.0754
@<TRIPOS>BOND
    1     1     2    1
    2     1     3    2
    3     1     4    1
    4     4     5    1
    5     4     6    1
    6     4     7    1
    7     7     8    1
    8     7     9    1
    9     7    10    1
   10    10    11    1
   11    10    12    1
   12    10    13    1
   13    13    14    1
   14    13    15    1
   15    13    16    1
   16    16    17    1
   17    16    18    1
   18    16    19    1
   19    19    20    1
   20    19    21    1
   21    19    22    1
@<TRIPOS>SUBSTRUCTURE
       1 MOL1            1 RESIDUE      1      MOL     
@<SCITEGIC>MOL_PROPERTY
VConf Rank
SciTegic.value.IntegerValue
281

@<SCITEGIC>MOL_PROPERTY
Conf_Id
SciTegic.value.IntegerValue
0

@<SCITEGIC>MOL_PROPERTY
Delta U+W
SciTegic.value.DoubleValue
0.000

@<SCITEGIC>MOL_PROPERTY
U+W
SciTegic.value.DoubleValue
-53.159

@<SCITEGIC>MOL_PROPERTY
Grad RMS
SciTegic.value.DoubleValue
0.000000

@<SCITEGIC>MOL_PROPERTY
U
SciTegic.value.DoubleValue
6.763

@<SCITEGIC>MOL_PROPERTY
W
SciTegic.value.DoubleValue
-59.922

@<SCITEGIC>MOL_PROPERTY
W(PB)
SciTegic.value.DoubleValue
-62.256

@<SCITEGIC>MOL_PROPERTY
W(SA)
SciTegic.value.DoubleValue
2.334

@<SCITEGIC>MOL_PROPERTY
Valence
SciTegic.value.DoubleValue
7.600

@<SCITEGIC>MOL_PROPERTY
Coulomb
SciTegic.value.DoubleValue
-2.139

@<SCITEGIC>MOL_PROPERTY
VdW
SciTegic.value.DoubleValue
1.302

@<SCITEGIC>MOL_PROPERTY
VdW6
SciTegic.value.DoubleValue
-6.786

@<SCITEGIC>MOL_PROPERTY
VdW12
SciTegic.value.DoubleValue
8.088

@<SCITEGIC>MOL_PROPERTY
Bond
SciTegic.value.DoubleValue
0.134

@<SCITEGIC>MOL_PROPERTY
Angle
SciTegic.value.DoubleValue
2.720

@<SCITEGIC>MOL_PROPERTY
Pdih
SciTegic.value.DoubleValue
4.746

@<SCITEGIC>MOL_PROPERTY
Idih
SciTegic.value.DoubleValue
0.000

@<SCITEGIC>MOL_PROPERTY
Tether
SciTegic.value.DoubleValue
0.000

@<TRIPOS>MOLECULE
guest-s21_confgen4.mol2 : confsearch ligand conformer 282
          22          21           1
SMALL
USER_CHARGES
 
@<TRIPOS>ATOM
       1    C1      16.396697   17.927140   20.294931 C.2        1 MOL1         0.6145
       2    O1      15.932648   16.865224   20.660205 O.co2      1 MOL1        -0.6735
       3    O2      16.299986   18.349008   19.159544 O.co2      1 MOL1        -0.6735
       4    C2      17.161978   18.766293   21.311976 C.3        1 MOL1        -0.1985
       5    H1      16.711731   18.600711   22.298141 H          1 MOL1         0.0740
       6    H2      17.014170   19.823682   21.061492 H          1 MOL1         0.0740
       7    C3      18.673651   18.432652   21.351725 C.3        1 MOL1        -0.1882
       8    H3      18.804130   17.368042   21.590790 H          1 MOL1         0.0742
       9    H4      19.106560   18.590977   20.354179 H          1 MOL1         0.0742
      10    C4      19.425589   19.295014   22.388451 C.3        1 MOL1        -0.1880
      11    H5      18.989597   19.135335   23.384235 H          1 MOL1         0.0742
      12    H6      19.292070   20.358596   22.147330 H          1 MOL1         0.0742
      13    C5      20.932186   18.960256   22.425806 C.3        1 MOL1        -0.1880
      14    H7      21.066129   17.896741   22.666889 H          1 MOL1         0.0742
      15    H8      21.368555   19.119797   21.430188 H          1 MOL1         0.0742
      16    C6      21.684396   19.821723   23.461723 C.3        1 MOL1        -0.1856
      17    H9      21.251973   19.663296   24.459413 H          1 MOL1         0.0742
      18    H10     21.554390   20.886362   23.222725 H          1 MOL1         0.0742
      19    C7      23.188524   19.484426   23.495962 C.3        1 MOL1        -0.2871
      20    H11     23.653746   19.664194   22.517873 H          1 MOL1         0.0754
      21    H12     23.349028   18.431837   23.763732 H          1 MOL1         0.0754
      22    H13     23.707542   20.105674   24.237423 H          1 MOL1         0.0754
@<TRIPOS>BOND
    1     1     2    1
    2     1     3    2
    3     1     4    1
    4     4     5    1
    5     4     6    1
    6     4     7    1
    7     7     8    1
    8     7     9    1
    9     7    10    1
   10    10    11    1
   11    10    12    1
   12    10    13    1
   13    13    14    1
   14    13    15    1
   15    13    16    1
   16    16    17    1
   17    16    18    1
   18    16    19    1
   19    19    20    1
   20    19    21    1
   21    19    22    1
@<TRIPOS>SUBSTRUCTURE
       1 MOL1            1 RESIDUE      1      MOL     
@<SCITEGIC>MOL_PROPERTY
VConf Rank
SciTegic.value.IntegerValue
282

@<SCITEGIC>MOL_PROPERTY
Conf_Id
SciTegic.value.IntegerValue
10

@<SCITEGIC>MOL_PROPERTY
Delta U+W
SciTegic.value.DoubleValue
-1.291

@<SCITEGIC>MOL_PROPERTY
U+W
SciTegic.value.DoubleValue
-54.451

@<SCITEGIC>MOL_PROPERTY
Grad RMS
SciTegic.value.DoubleValue
0.000000

@<SCITEGIC>MOL_PROPERTY
U
SciTegic.value.DoubleValue
5.779

@<SCITEGIC>MOL_PROPERTY
W
SciTegic.value.DoubleValue
-60.230

@<SCITEGIC>MOL_PROPERTY
W(PB)
SciTegic.value.DoubleValue
-62.557

@<SCITEGIC>MOL_PROPERTY
W(SA)
SciTegic.value.DoubleValue
2.328

@<SCITEGIC>MOL_PROPERTY
Valence
SciTegic.value.DoubleValue
7.101

@<SCITEGIC>MOL_PROPERTY
Coulomb
SciTegic.value.DoubleValue
-2.079

@<SCITEGIC>MOL_PROPERTY
VdW
SciTegic.value.DoubleValue
0.757

@<SCITEGIC>MOL_PROPERTY
VdW6
SciTegic.value.DoubleValue
-6.496

@<SCITEGIC>MOL_PROPERTY
VdW12
SciTegic.value.DoubleValue
7.253

@<SCITEGIC>MOL_PROPERTY
Bond
SciTegic.value.DoubleValue
0.100

@<SCITEGIC>MOL_PROPERTY
Angle
SciTegic.value.DoubleValue
2.262

@<SCITEGIC>MOL_PROPERTY
Pdih
SciTegic.value.DoubleValue
4.738

@<SCITEGIC>MOL_PROPERTY
Idih
SciTegic.value.DoubleValue
0.001

@<SCITEGIC>MOL_PROPERTY
Tether
SciTegic.value.DoubleValue
0.000

@<TRIPOS>MOLECULE
guest-s21_confgen4.mol2 : confsearch ligand conformer 283
          22          21           1
SMALL
USER_CHARGES
 
@<TRIPOS>ATOM
       1    C1      19.341034   15.419337   20.644768 C.2        1 MOL1         0.6145
       2    O1      20.109277   15.189836   19.731759 O.co2      1 MOL1        -0.6735
       3    O2      18.839267   14.554772   21.335574 O.co2      1 MOL1        -0.6735
       4    C2      19.004458   16.873712   20.954152 C.3        1 MOL1        -0.1985
       5    H1      17.976247   16.912290   21.333544 H          1 MOL1         0.0740
       6    H2      19.023917   17.435675   20.012624 H          1 MOL1         0.0740
       7    C3      19.975950   17.511701   21.977541 C.3        1 MOL1        -0.1882
       8    H3      19.954512   16.929627   22.909337 H          1 MOL1         0.0742
       9    H4      21.002114   17.453977   21.588689 H          1 MOL1         0.0742
      10    C4      19.614039   18.983339   22.273590 C.3        1 MOL1        -0.1880
      11    H5      18.588650   19.037741   22.664067 H          1 MOL1         0.0742
      12    H6      19.631452   19.553737   21.335768 H          1 MOL1         0.0742
      13    C5      20.588884   19.616682   23.292812 C.3        1 MOL1        -0.1880
      14    H7      20.612948   18.994995   24.198272 H          1 MOL1         0.0742
      15    H8      21.608404   19.609885   22.883584 H          1 MOL1         0.0742
      16    C6      20.203875   21.058625   23.697629 C.3        1 MOL1        -0.1856
      17    H9      20.872151   21.388298   24.505069 H          1 MOL1         0.0742
      18    H10     19.186819   21.068385   24.113336 H          1 MOL1         0.0742
      19    C7      20.298255   22.066740   22.531865 C.3        1 MOL1        -0.2871
      20    H11     20.102724   23.086035   22.889250 H          1 MOL1         0.0754
      21    H12     19.563568   21.843260   21.748287 H          1 MOL1         0.0754
      22    H13     21.298879   22.052997   22.080537 H          1 MOL1         0.0754
@<TRIPOS>BOND
    1     1     2    1
    2     1     3    2
    3     1     4    1
    4     4     5    1
    5     4     6    1
    6     4     7    1
    7     7     8    1
    8     7     9    1
    9     7    10    1
   10    10    11    1
   11    10    12    1
   12    10    13    1
   13    13    14    1
   14    13    15    1
   15    13    16    1
   16    16    17    1
   17    16    18    1
   18    16    19    1
   19    19    20    1
   20    19    21    1
   21    19    22    1
@<TRIPOS>SUBSTRUCTURE
       1 MOL1            1 RESIDUE      1      MOL     
@<SCITEGIC>MOL_PROPERTY
VConf Rank
SciTegic.value.IntegerValue
283

@<SCITEGIC>MOL_PROPERTY
Conf_Id
SciTegic.value.IntegerValue
37

@<SCITEGIC>MOL_PROPERTY
Delta U+W
SciTegic.value.DoubleValue
-0.345

@<SCITEGIC>MOL_PROPERTY
U+W
SciTegic.value.DoubleValue
-53.504

@<SCITEGIC>MOL_PROPERTY
Grad RMS
SciTegic.value.DoubleValue
0.000000

@<SCITEGIC>MOL_PROPERTY
U
SciTegic.value.DoubleValue
6.751

@<SCITEGIC>MOL_PROPERTY
W
SciTegic.value.DoubleValue
-60.255

@<SCITEGIC>MOL_PROPERTY
W(PB)
SciTegic.value.DoubleValue
-62.592

@<SCITEGIC>MOL_PROPERTY
W(SA)
SciTegic.value.DoubleValue
2.336

@<SCITEGIC>MOL_PROPERTY
Valence
SciTegic.value.DoubleValue
7.602

@<SCITEGIC>MOL_PROPERTY
Coulomb
SciTegic.value.DoubleValue
-1.744

@<SCITEGIC>MOL_PROPERTY
VdW
SciTegic.value.DoubleValue
0.894

@<SCITEGIC>MOL_PROPERTY
VdW6
SciTegic.value.DoubleValue
-7.110

@<SCITEGIC>MOL_PROPERTY
VdW12
SciTegic.value.DoubleValue
8.004

@<SCITEGIC>MOL_PROPERTY
Bond
SciTegic.value.DoubleValue
0.131

@<SCITEGIC>MOL_PROPERTY
Angle
SciTegic.value.DoubleValue
2.489

@<SCITEGIC>MOL_PROPERTY
Pdih
SciTegic.value.DoubleValue
4.982

@<SCITEGIC>MOL_PROPERTY
Idih
SciTegic.value.DoubleValue
0.001

@<SCITEGIC>MOL_PROPERTY
Tether
SciTegic.value.DoubleValue
0.000

@<TRIPOS>MOLECULE
guest-s21_confgen4.mol2 : confsearch ligand conformer 284
          22          21           1
SMALL
USER_CHARGES
 
@<TRIPOS>ATOM
       1    C1      20.077263   15.186366   22.922045 C.2        1 MOL1         0.6145
       2    O1      20.595369   14.946165   23.994576 O.co2      1 MOL1        -0.6735
       3    O2      20.110533   14.427584   21.973573 O.co2      1 MOL1        -0.6735
       4    C2      19.364601   16.523052   22.750010 C.3        1 MOL1        -0.1985
       5    H1      18.931660   16.805322   23.717245 H          1 MOL1         0.0740
       6    H2      18.531425   16.377679   22.051920 H          1 MOL1         0.0740
       7    C3      20.302440   17.643445   22.236852 C.3        1 MOL1        -0.1882
       8    H3      21.137594   17.768173   22.940066 H          1 MOL1         0.0742
       9    H4      20.737914   17.339403   21.274859 H          1 MOL1         0.0742
      10    C4      19.557398   18.985736   22.070968 C.3        1 MOL1        -0.1880
      11    H5      19.120515   19.276248   23.035283 H          1 MOL1         0.0742
      12    H6      18.724601   18.858584   21.365889 H          1 MOL1         0.0742
      13    C5      20.498740   20.101694   21.562267 C.3        1 MOL1        -0.1880
      14    H7      21.304836   20.266554   22.290255 H          1 MOL1         0.0742
      15    H8      20.981526   19.766519   20.634091 H          1 MOL1         0.0742
      16    C6      19.773003   21.438336   21.282975 C.3        1 MOL1        -0.1856
      17    H9      18.969985   21.278611   20.550200 H          1 MOL1         0.0742
      18    H10     20.483911   22.134692   20.817211 H          1 MOL1         0.0742
      19    C7      19.193209   22.096376   22.553814 C.3        1 MOL1        -0.2871
      20    H11     19.972972   22.238626   23.313334 H          1 MOL1         0.0754
      21    H12     18.392931   21.486624   22.991376 H          1 MOL1         0.0754
      22    H13     18.768802   23.080561   22.316795 H          1 MOL1         0.0754
@<TRIPOS>BOND
    1     1     2    1
    2     1     3    2
    3     1     4    1
    4     4     5    1
    5     4     6    1
    6     4     7    1
    7     7     8    1
    8     7     9    1
    9     7    10    1
   10    10    11    1
   11    10    12    1
   12    10    13    1
   13    13    14    1
   14    13    15    1
   15    13    16    1
   16    16    17    1
   17    16    18    1
   18    16    19    1
   19    19    20    1
   20    19    21    1
   21    19    22    1
@<TRIPOS>SUBSTRUCTURE
       1 MOL1            1 RESIDUE      1      MOL     
@<SCITEGIC>MOL_PROPERTY
VConf Rank
SciTegic.value.IntegerValue
284

@<SCITEGIC>MOL_PROPERTY
Conf_Id
SciTegic.value.IntegerValue
38

@<SCITEGIC>MOL_PROPERTY
Delta U+W
SciTegic.value.DoubleValue
-0.439

@<SCITEGIC>MOL_PROPERTY
U+W
SciTegic.value.DoubleValue
-53.598

@<SCITEGIC>MOL_PROPERTY
Grad RMS
SciTegic.value.DoubleValue
0.000000

@<SCITEGIC>MOL_PROPERTY
U
SciTegic.value.DoubleValue
6.751

@<SCITEGIC>MOL_PROPERTY
W
SciTegic.value.DoubleValue
-60.350

@<SCITEGIC>MOL_PROPERTY
W(PB)
SciTegic.value.DoubleValue
-62.659

@<SCITEGIC>MOL_PROPERTY
W(SA)
SciTegic.value.DoubleValue
2.309

@<SCITEGIC>MOL_PROPERTY
Valence
SciTegic.value.DoubleValue
7.602

@<SCITEGIC>MOL_PROPERTY
Coulomb
SciTegic.value.DoubleValue
-1.744

@<SCITEGIC>MOL_PROPERTY
VdW
SciTegic.value.DoubleValue
0.893

@<SCITEGIC>MOL_PROPERTY
VdW6
SciTegic.value.DoubleValue
-7.110

@<SCITEGIC>MOL_PROPERTY
VdW12
SciTegic.value.DoubleValue
8.004

@<SCITEGIC>MOL_PROPERTY
Bond
SciTegic.value.DoubleValue
0.131

@<SCITEGIC>MOL_PROPERTY
Angle
SciTegic.value.DoubleValue
2.489

@<SCITEGIC>MOL_PROPERTY
Pdih
SciTegic.value.DoubleValue
4.981

@<SCITEGIC>MOL_PROPERTY
Idih
SciTegic.value.DoubleValue
0.001

@<SCITEGIC>MOL_PROPERTY
Tether
SciTegic.value.DoubleValue
0.000

@<TRIPOS>MOLECULE
guest-s21_confgen4.mol2 : confsearch ligand conformer 285
          22          21           1
SMALL
USER_CHARGES
 
@<TRIPOS>ATOM
       1    C1      19.128425   19.978743   18.659642 C.2        1 MOL1         0.6145
       2    O1      19.891699   19.777692   17.735762 O.co2      1 MOL1        -0.6735
       3    O2      18.236980   20.803895   18.628350 O.co2      1 MOL1        -0.6735
       4    C2      19.313912   19.166710   19.936547 C.3        1 MOL1        -0.1985
       5    H1      19.700858   18.179176   19.658217 H          1 MOL1         0.0740
       6    H2      18.323917   19.015205   20.380862 H          1 MOL1         0.0740
       7    C3      20.270328   19.850439   20.948176 C.3        1 MOL1        -0.1882
       8    H3      21.217848   20.074562   20.438842 H          1 MOL1         0.0742
       9    H4      19.848753   20.816903   21.257232 H          1 MOL1         0.0742
      10    C4      20.572836   18.988197   22.197075 C.3        1 MOL1        -0.1880
      11    H5      21.359535   19.490824   22.773964 H          1 MOL1         0.0742
      12    H6      20.986200   18.019724   21.884252 H          1 MOL1         0.0742
      13    C5      19.336968   18.761308   23.102157 C.3        1 MOL1        -0.1880
      14    H7      18.922652   19.729889   23.413437 H          1 MOL1         0.0742
      15    H8      18.550575   18.256013   22.527402 H          1 MOL1         0.0742
      16    C6      19.640809   17.903172   24.352516 C.3        1 MOL1        -0.1856
      17    H9      20.066260   16.937663   24.045801 H          1 MOL1         0.0742
      18    H10     18.693840   17.676730   24.861652 H          1 MOL1         0.0742
      19    C7      20.588940   18.594401   25.356461 C.3        1 MOL1        -0.2871
      20    H11     21.591376   18.732480   24.932809 H          1 MOL1         0.0754
      21    H12     20.694030   17.987173   26.264838 H          1 MOL1         0.0754
      22    H13     20.200219   19.577935   25.650880 H          1 MOL1         0.0754
@<TRIPOS>BOND
    1     1     2    1
    2     1     3    2
    3     1     4    1
    4     4     5    1
    5     4     6    1
    6     4     7    1
    7     7     8    1
    8     7     9    1
    9     7    10    1
   10    10    11    1
   11    10    12    1
   12    10    13    1
   13    13    14    1
   14    13    15    1
   15    13    16    1
   16    16    17    1
   17    16    18    1
   18    16    19    1
   19    19    20    1
   20    19    21    1
   21    19    22    1
@<TRIPOS>SUBSTRUCTURE
       1 MOL1            1 RESIDUE      1      MOL     
@<SCITEGIC>MOL_PROPERTY
VConf Rank
SciTegic.value.IntegerValue
285

@<SCITEGIC>MOL_PROPERTY
Conf_Id
SciTegic.value.IntegerValue
60

@<SCITEGIC>MOL_PROPERTY
Delta U+W
SciTegic.value.DoubleValue
0.386

@<SCITEGIC>MOL_PROPERTY
U+W
SciTegic.value.DoubleValue
-52.773

@<SCITEGIC>MOL_PROPERTY
Grad RMS
SciTegic.value.DoubleValue
0.000000

@<SCITEGIC>MOL_PROPERTY
U
SciTegic.value.DoubleValue
7.689

@<SCITEGIC>MOL_PROPERTY
W
SciTegic.value.DoubleValue
-60.463

@<SCITEGIC>MOL_PROPERTY
W(PB)
SciTegic.value.DoubleValue
-62.772

@<SCITEGIC>MOL_PROPERTY
W(SA)
SciTegic.value.DoubleValue
2.309

@<SCITEGIC>MOL_PROPERTY
Valence
SciTegic.value.DoubleValue
8.197

@<SCITEGIC>MOL_PROPERTY
Coulomb
SciTegic.value.DoubleValue
-1.561

@<SCITEGIC>MOL_PROPERTY
VdW
SciTegic.value.DoubleValue
1.053

@<SCITEGIC>MOL_PROPERTY
VdW6
SciTegic.value.DoubleValue
-7.737

@<SCITEGIC>MOL_PROPERTY
VdW12
SciTegic.value.DoubleValue
8.790

@<SCITEGIC>MOL_PROPERTY
Bond
SciTegic.value.DoubleValue
0.181

@<SCITEGIC>MOL_PROPERTY
Angle
SciTegic.value.DoubleValue
2.780

@<SCITEGIC>MOL_PROPERTY
Pdih
SciTegic.value.DoubleValue
5.235

@<SCITEGIC>MOL_PROPERTY
Idih
SciTegic.value.DoubleValue
0.001

@<SCITEGIC>MOL_PROPERTY
Tether
SciTegic.value.DoubleValue
0.000

@<TRIPOS>MOLECULE
guest-s21_confgen4.mol2 : confsearch ligand conformer 286
          22          21           1
SMALL
USER_CHARGES
 
@<TRIPOS>ATOM
       1    C1      17.947287   21.919853   20.931146 C.2        1 MOL1         0.6145
       2    O1      18.634853   22.541713   20.145604 O.co2      1 MOL1        -0.6735
       3    O2      16.964850   22.381512   21.477269 O.co2      1 MOL1        -0.6735
       4    C2      18.352396   20.489086   21.267420 C.3        1 MOL1        -0.1985
       5    H1      18.804103   20.051892   20.370044 H          1 MOL1         0.0740
       6    H2      17.440684   19.919590   21.483916 H          1 MOL1         0.0740
       7    C3      19.330743   20.409556   22.468306 C.3        1 MOL1        -0.1882
       8    H3      20.259755   20.941859   22.221557 H          1 MOL1         0.0742
       9    H4      18.885241   20.942531   23.319724 H          1 MOL1         0.0742
      10    C4      19.657928   18.962375   22.908010 C.3        1 MOL1        -0.1880
      11    H5      18.726632   18.430671   23.146015 H          1 MOL1         0.0742
      12    H6      20.234482   19.013196   23.840389 H          1 MOL1         0.0742
      13    C5      20.459842   18.164447   21.850532 C.3        1 MOL1        -0.1880
      14    H7      19.883080   18.110134   20.918613 H          1 MOL1         0.0742
      15    H8      21.390211   18.697221   21.611226 H          1 MOL1         0.0742
      16    C6      20.790519   16.719600   22.292327 C.3        1 MOL1        -0.1856
      17    H9      21.234081   16.184886   21.441105 H          1 MOL1         0.0742
      18    H10     19.863083   16.186718   22.543707 H          1 MOL1         0.0742
      19    C7      21.769934   16.650569   23.484231 C.3        1 MOL1        -0.2871
      20    H11     22.691546   17.206554   23.268275 H          1 MOL1         0.0754
      21    H12     22.045354   15.608939   23.694159 H          1 MOL1         0.0754
      22    H13     21.322849   17.064979   24.396264 H          1 MOL1         0.0754
@<TRIPOS>BOND
    1     1     2    1
    2     1     3    2
    3     1     4    1
    4     4     5    1
    5     4     6    1
    6     4     7    1
    7     7     8    1
    8     7     9    1
    9     7    10    1
   10    10    11    1
   11    10    12    1
   12    10    13    1
   13    13    14    1
   14    13    15    1
   15    13    16    1
   16    16    17    1
   17    16    18    1
   18    16    19    1
   19    19    20    1
   20    19    21    1
   21    19    22    1
@<TRIPOS>SUBSTRUCTURE
       1 MOL1            1 RESIDUE      1      MOL     
@<SCITEGIC>MOL_PROPERTY
VConf Rank
SciTegic.value.IntegerValue
286

@<SCITEGIC>MOL_PROPERTY
Conf_Id
SciTegic.value.IntegerValue
28

@<SCITEGIC>MOL_PROPERTY
Delta U+W
SciTegic.value.DoubleValue
0.351

@<SCITEGIC>MOL_PROPERTY
U+W
SciTegic.value.DoubleValue
-52.808

@<SCITEGIC>MOL_PROPERTY
Grad RMS
SciTegic.value.DoubleValue
0.000000

@<SCITEGIC>MOL_PROPERTY
U
SciTegic.value.DoubleValue
7.689

@<SCITEGIC>MOL_PROPERTY
W
SciTegic.value.DoubleValue
-60.498

@<SCITEGIC>MOL_PROPERTY
W(PB)
SciTegic.value.DoubleValue
-62.768

@<SCITEGIC>MOL_PROPERTY
W(SA)
SciTegic.value.DoubleValue
2.270

@<SCITEGIC>MOL_PROPERTY
Valence
SciTegic.value.DoubleValue
8.197

@<SCITEGIC>MOL_PROPERTY
Coulomb
SciTegic.value.DoubleValue
-1.561

@<SCITEGIC>MOL_PROPERTY
VdW
SciTegic.value.DoubleValue
1.053

@<SCITEGIC>MOL_PROPERTY
VdW6
SciTegic.value.DoubleValue
-7.737

@<SCITEGIC>MOL_PROPERTY
VdW12
SciTegic.value.DoubleValue
8.791

@<SCITEGIC>MOL_PROPERTY
Bond
SciTegic.value.DoubleValue
0.181

@<SCITEGIC>MOL_PROPERTY
Angle
SciTegic.value.DoubleValue
2.780

@<SCITEGIC>MOL_PROPERTY
Pdih
SciTegic.value.DoubleValue
5.235

@<SCITEGIC>MOL_PROPERTY
Idih
SciTegic.value.DoubleValue
0.001

@<SCITEGIC>MOL_PROPERTY
Tether
SciTegic.value.DoubleValue
0.000

@<TRIPOS>MOLECULE
guest-s21_confgen4.mol2 : confsearch ligand conformer 287
          22          21           1
SMALL
USER_CHARGES
 
@<TRIPOS>ATOM
       1    C1      21.879505   18.148023   19.177088 C.2        1 MOL1         0.6145
       2    O1      22.506547   17.107317   19.162233 O.co2      1 MOL1        -0.6735
       3    O2      21.244032   18.564484   18.228832 O.co2      1 MOL1        -0.6735
       4    C2      21.873540   18.966649   20.463221 C.3        1 MOL1        -0.1985
       5    H1      21.798752   20.026643   20.192169 H          1 MOL1         0.0740
       6    H2      22.840827   18.826460   20.960533 H          1 MOL1         0.0740
       7    C3      20.718841   18.577171   21.418868 C.3        1 MOL1        -0.1882
       8    H3      19.764073   18.706571   20.892423 H          1 MOL1         0.0742
       9    H4      20.802706   17.511625   21.673589 H          1 MOL1         0.0742
      10    C4      20.733866   19.425403   22.711670 C.3        1 MOL1        -0.1880
      11    H5      20.597051   20.486215   22.460777 H          1 MOL1         0.0742
      12    H6      21.723433   19.342249   23.181569 H          1 MOL1         0.0742
      13    C5      19.664263   18.995313   23.743433 C.3        1 MOL1        -0.1880
      14    H7      19.803239   17.935604   23.997664 H          1 MOL1         0.0742
      15    H8      19.828062   19.561072   24.670803 H          1 MOL1         0.0742
      16    C6      18.214384   19.229905   23.262695 C.3        1 MOL1        -0.1856
      17    H9      18.003777   18.612435   22.379669 H          1 MOL1         0.0742
      18    H10     18.089795   20.278285   22.958421 H          1 MOL1         0.0742
      19    C7      17.191416   18.891991   24.365901 C.3        1 MOL1        -0.2871
      20    H11     17.347952   19.519523   25.253064 H          1 MOL1         0.0754
      21    H12     17.275562   17.840490   24.670288 H          1 MOL1         0.0754
      22    H13     16.167275   19.060465   24.008382 H          1 MOL1         0.0754
@<TRIPOS>BOND
    1     1     2    1
    2     1     3    2
    3     1     4    1
    4     4     5    1
    5     4     6    1
    6     4     7    1
    7     7     8    1
    8     7     9    1
    9     7    10    1
   10    10    11    1
   11    10    12    1
   12    10    13    1
   13    13    14    1
   14    13    15    1
   15    13    16    1
   16    16    17    1
   17    16    18    1
   18    16    19    1
   19    19    20    1
   20    19    21    1
   21    19    22    1
@<TRIPOS>SUBSTRUCTURE
       1 MOL1            1 RESIDUE      1      MOL     
@<SCITEGIC>MOL_PROPERTY
VConf Rank
SciTegic.value.IntegerValue
287

@<SCITEGIC>MOL_PROPERTY
Conf_Id
SciTegic.value.IntegerValue
50

@<SCITEGIC>MOL_PROPERTY
Delta U+W
SciTegic.value.DoubleValue
-0.486

@<SCITEGIC>MOL_PROPERTY
U+W
SciTegic.value.DoubleValue
-53.646

@<SCITEGIC>MOL_PROPERTY
Grad RMS
SciTegic.value.DoubleValue
0.000000

@<SCITEGIC>MOL_PROPERTY
U
SciTegic.value.DoubleValue
7.026

@<SCITEGIC>MOL_PROPERTY
W
SciTegic.value.DoubleValue
-60.672

@<SCITEGIC>MOL_PROPERTY
W(PB)
SciTegic.value.DoubleValue
-62.964

@<SCITEGIC>MOL_PROPERTY
W(SA)
SciTegic.value.DoubleValue
2.292

@<SCITEGIC>MOL_PROPERTY
Valence
SciTegic.value.DoubleValue
7.637

@<SCITEGIC>MOL_PROPERTY
Coulomb
SciTegic.value.DoubleValue
-1.488

@<SCITEGIC>MOL_PROPERTY
VdW
SciTegic.value.DoubleValue
0.877

@<SCITEGIC>MOL_PROPERTY
VdW6
SciTegic.value.DoubleValue
-7.165

@<SCITEGIC>MOL_PROPERTY
VdW12
SciTegic.value.DoubleValue
8.043

@<SCITEGIC>MOL_PROPERTY
Bond
SciTegic.value.DoubleValue
0.134

@<SCITEGIC>MOL_PROPERTY
Angle
SciTegic.value.DoubleValue
2.513

@<SCITEGIC>MOL_PROPERTY
Pdih
SciTegic.value.DoubleValue
4.990

@<SCITEGIC>MOL_PROPERTY
Idih
SciTegic.value.DoubleValue
0.001

@<SCITEGIC>MOL_PROPERTY
Tether
SciTegic.value.DoubleValue
0.000

@<TRIPOS>MOLECULE
guest-s21_confgen4.mol2 : confsearch ligand conformer 288
          22          21           1
SMALL
USER_CHARGES
 
@<TRIPOS>ATOM
       1    C1      18.369807   21.086549   19.466913 C.2        1 MOL1         0.6145
       2    O1      17.821939   20.491361   18.560236 O.co2      1 MOL1        -0.6735
       3    O2      19.127186   22.021496   19.297481 O.co2      1 MOL1        -0.6735
       4    C2      18.108379   20.621394   20.895064 C.3        1 MOL1        -0.1985
       5    H1      17.082486   20.237197   20.945578 H          1 MOL1         0.0740
       6    H2      18.159657   21.496941   21.553424 H          1 MOL1         0.0740
       7    C3      19.109447   19.538513   21.367852 C.3        1 MOL1        -0.1882
       8    H3      19.052430   18.672813   20.693600 H          1 MOL1         0.0742
       9    H4      20.128578   19.939326   21.289181 H          1 MOL1         0.0742
      10    C4      18.824164   19.088815   22.819559 C.3        1 MOL1        -0.1880
      11    H5      17.777327   18.763758   22.893255 H          1 MOL1         0.0742
      12    H6      18.932823   19.943871   23.500780 H          1 MOL1         0.0742
      13    C5      19.731440   17.929418   23.295173 C.3        1 MOL1        -0.1880
      14    H7      19.378904   17.593203   24.279859 H          1 MOL1         0.0742
      15    H8      19.620101   17.072728   22.616485 H          1 MOL1         0.0742
      16    C6      21.223248   18.318256   23.402896 C.3        1 MOL1        -0.1856
      17    H9      21.329520   19.207395   24.039563 H          1 MOL1         0.0742
      18    H10     21.617748   18.583389   22.413233 H          1 MOL1         0.0742
      19    C7      22.066763   17.166918   23.986521 C.3        1 MOL1        -0.2871
      20    H11     22.000478   16.272116   23.353812 H          1 MOL1         0.0754
      21    H12     21.724098   16.900206   24.994888 H          1 MOL1         0.0754
      22    H13     23.123344   17.457094   24.053641 H          1 MOL1         0.0754
@<TRIPOS>BOND
    1     1     2    1
    2     1     3    2
    3     1     4    1
    4     4     5    1
    5     4     6    1
    6     4     7    1
    7     7     8    1
    8     7     9    1
    9     7    10    1
   10    10    11    1
   11    10    12    1
   12    10    13    1
   13    13    14    1
   14    13    15    1
   15    13    16    1
   16    16    17    1
   17    16    18    1
   18    16    19    1
   19    19    20    1
   20    19    21    1
   21    19    22    1
@<TRIPOS>SUBSTRUCTURE
       1 MOL1            1 RESIDUE      1      MOL     
@<SCITEGIC>MOL_PROPERTY
VConf Rank
SciTegic.value.IntegerValue
288

@<SCITEGIC>MOL_PROPERTY
Conf_Id
SciTegic.value.IntegerValue
51

@<SCITEGIC>MOL_PROPERTY
Delta U+W
SciTegic.value.DoubleValue
-0.517

@<SCITEGIC>MOL_PROPERTY
U+W
SciTegic.value.DoubleValue
-53.677

@<SCITEGIC>MOL_PROPERTY
Grad RMS
SciTegic.value.DoubleValue
0.000000

@<SCITEGIC>MOL_PROPERTY
U
SciTegic.value.DoubleValue
7.026

@<SCITEGIC>MOL_PROPERTY
W
SciTegic.value.DoubleValue
-60.703

@<SCITEGIC>MOL_PROPERTY
W(PB)
SciTegic.value.DoubleValue
-63.007

@<SCITEGIC>MOL_PROPERTY
W(SA)
SciTegic.value.DoubleValue
2.304

@<SCITEGIC>MOL_PROPERTY
Valence
SciTegic.value.DoubleValue
7.638

@<SCITEGIC>MOL_PROPERTY
Coulomb
SciTegic.value.DoubleValue
-1.488

@<SCITEGIC>MOL_PROPERTY
VdW
SciTegic.value.DoubleValue
0.877

@<SCITEGIC>MOL_PROPERTY
VdW6
SciTegic.value.DoubleValue
-7.165

@<SCITEGIC>MOL_PROPERTY
VdW12
SciTegic.value.DoubleValue
8.042

@<SCITEGIC>MOL_PROPERTY
Bond
SciTegic.value.DoubleValue
0.134

@<SCITEGIC>MOL_PROPERTY
Angle
SciTegic.value.DoubleValue
2.513

@<SCITEGIC>MOL_PROPERTY
Pdih
SciTegic.value.DoubleValue
4.990

@<SCITEGIC>MOL_PROPERTY
Idih
SciTegic.value.DoubleValue
0.001

@<SCITEGIC>MOL_PROPERTY
Tether
SciTegic.value.DoubleValue
0.000

@<TRIPOS>MOLECULE
guest-s21_confgen4.mol2 : confsearch ligand conformer 289
          22          21           1
SMALL
USER_CHARGES
 
@<TRIPOS>ATOM
       1    C1      21.187152   21.634646   20.646547 C.2        1 MOL1         0.6145
       2    O1      22.144064   21.379489   19.942192 O.co2      1 MOL1        -0.6735
       3    O2      20.131063   22.057120   20.218782 O.co2      1 MOL1        -0.6735
       4    C2      21.328081   21.430503   22.152402 C.3        1 MOL1        -0.1985
       5    H1      20.546602   22.009769   22.659007 H          1 MOL1         0.0740
       6    H2      22.289397   21.863275   22.453436 H          1 MOL1         0.0740
       7    C3      21.266810   19.945802   22.596134 C.3        1 MOL1        -0.1882
       8    H3      22.036452   19.373558   22.059626 H          1 MOL1         0.0742
       9    H4      21.513356   19.882712   23.664674 H          1 MOL1         0.0742
      10    C4      19.879092   19.310376   22.355181 C.3        1 MOL1        -0.1880
      11    H5      19.632652   19.354278   21.285252 H          1 MOL1         0.0742
      12    H6      19.111880   19.893579   22.882700 H          1 MOL1         0.0742
      13    C5      19.831485   17.843000   22.832667 C.3        1 MOL1        -0.1880
      14    H7      20.598940   17.260461   22.304681 H          1 MOL1         0.0742
      15    H8      20.074781   17.796746   23.903053 H          1 MOL1         0.0742
      16    C6      18.446164   17.207515   22.591649 C.3        1 MOL1        -0.1856
      17    H9      18.200141   17.250375   21.521538 H          1 MOL1         0.0742
      18    H10     17.675977   17.786662   23.119723 H          1 MOL1         0.0742
      19    C7      18.402616   15.742078   23.069095 C.3        1 MOL1        -0.2871
      20    H11     19.142443   15.132485   22.533882 H          1 MOL1         0.0754
      21    H12     17.411104   15.306213   22.890179 H          1 MOL1         0.0754
      22    H13     18.614380   15.672782   24.144153 H          1 MOL1         0.0754
@<TRIPOS>BOND
    1     1     2    1
    2     1     3    2
    3     1     4    1
    4     4     5    1
    5     4     6    1
    6     4     7    1
    7     7     8    1
    8     7     9    1
    9     7    10    1
   10    10    11    1
   11    10    12    1
   12    10    13    1
   13    13    14    1
   14    13    15    1
   15    13    16    1
   16    16    17    1
   17    16    18    1
   18    16    19    1
   19    19    20    1
   20    19    21    1
   21    19    22    1
@<TRIPOS>SUBSTRUCTURE
       1 MOL1            1 RESIDUE      1      MOL     
@<SCITEGIC>MOL_PROPERTY
VConf Rank
SciTegic.value.IntegerValue
289

@<SCITEGIC>MOL_PROPERTY
Conf_Id
SciTegic.value.IntegerValue
43

@<SCITEGIC>MOL_PROPERTY
Delta U+W
SciTegic.value.DoubleValue
-0.129

@<SCITEGIC>MOL_PROPERTY
U+W
SciTegic.value.DoubleValue
-53.289

@<SCITEGIC>MOL_PROPERTY
Grad RMS
SciTegic.value.DoubleValue
0.000000

@<SCITEGIC>MOL_PROPERTY
U
SciTegic.value.DoubleValue
7.937

@<SCITEGIC>MOL_PROPERTY
W
SciTegic.value.DoubleValue
-61.225

@<SCITEGIC>MOL_PROPERTY
W(PB)
SciTegic.value.DoubleValue
-63.523

@<SCITEGIC>MOL_PROPERTY
W(SA)
SciTegic.value.DoubleValue
2.297

@<SCITEGIC>MOL_PROPERTY
Valence
SciTegic.value.DoubleValue
7.358

@<SCITEGIC>MOL_PROPERTY
Coulomb
SciTegic.value.DoubleValue
-0.022

@<SCITEGIC>MOL_PROPERTY
VdW
SciTegic.value.DoubleValue
0.601

@<SCITEGIC>MOL_PROPERTY
VdW6
SciTegic.value.DoubleValue
-7.363

@<SCITEGIC>MOL_PROPERTY
VdW12
SciTegic.value.DoubleValue
7.964

@<SCITEGIC>MOL_PROPERTY
Bond
SciTegic.value.DoubleValue
0.121

@<SCITEGIC>MOL_PROPERTY
Angle
SciTegic.value.DoubleValue
2.425

@<SCITEGIC>MOL_PROPERTY
Pdih
SciTegic.value.DoubleValue
4.811

@<SCITEGIC>MOL_PROPERTY
Idih
SciTegic.value.DoubleValue
0.000

@<SCITEGIC>MOL_PROPERTY
Tether
SciTegic.value.DoubleValue
0.000

@<TRIPOS>MOLECULE
guest-s21_confgen4.mol2 : confsearch ligand conformer 290
          22          21           1
SMALL
USER_CHARGES
 
@<TRIPOS>ATOM
       1    C1      22.389496   17.027315   23.121276 C.2        1 MOL1         0.6145
       2    O1      22.746804   17.124951   24.278730 O.co2      1 MOL1        -0.6735
       3    O2      23.099352   17.299579   22.173242 O.co2      1 MOL1        -0.6735
       4    C2      20.977864   16.517199   22.845220 C.3        1 MOL1        -0.1985
       5    H1      20.814225   15.642458   23.485604 H          1 MOL1         0.0740
       6    H2      20.929523   16.164636   21.807788 H          1 MOL1         0.0740
       7    C3      19.865769   17.565919   23.106812 C.3        1 MOL1        -0.1882
       8    H3      18.886397   17.076573   23.017865 H          1 MOL1         0.0742
       9    H4      19.944738   17.929932   24.140694 H          1 MOL1         0.0742
      10    C4      19.930519   18.758017   22.125844 C.3        1 MOL1        -0.1880
      11    H5      19.864400   18.387787   21.093578 H          1 MOL1         0.0742
      12    H6      20.901525   19.263454   22.221170 H          1 MOL1         0.0742
      13    C5      18.796372   19.773154   22.384039 C.3        1 MOL1        -0.1880
      14    H7      17.824195   19.270747   22.286471 H          1 MOL1         0.0742
      15    H8      18.863201   20.142944   23.416462 H          1 MOL1         0.0742
      16    C6      18.860842   20.964325   21.405261 C.3        1 MOL1        -0.1856
      17    H9      18.792603   20.598388   20.371387 H          1 MOL1         0.0742
      18    H10     19.831431   21.470518   21.501334 H          1 MOL1         0.0742
      19    C7      17.727178   21.976210   21.666514 C.3        1 MOL1        -0.2871
      20    H11     16.743486   21.503714   21.546126 H          1 MOL1         0.0754
      21    H12     17.788279   22.815996   20.962162 H          1 MOL1         0.0754
      22    H13     17.790189   22.382418   22.684564 H          1 MOL1         0.0754
@<TRIPOS>BOND
    1     1     2    1
    2     1     3    2
    3     1     4    1
    4     4     5    1
    5     4     6    1
    6     4     7    1
    7     7     8    1
    8     7     9    1
    9     7    10    1
   10    10    11    1
   11    10    12    1
   12    10    13    1
   13    13    14    1
   14    13    15    1
   15    13    16    1
   16    16    17    1
   17    16    18    1
   18    16    19    1
   19    19    20    1
   20    19    21    1
   21    19    22    1
@<TRIPOS>SUBSTRUCTURE
       1 MOL1            1 RESIDUE      1      MOL     
@<SCITEGIC>MOL_PROPERTY
VConf Rank
SciTegic.value.IntegerValue
290

@<SCITEGIC>MOL_PROPERTY
Conf_Id
SciTegic.value.IntegerValue
44

@<SCITEGIC>MOL_PROPERTY
Delta U+W
SciTegic.value.DoubleValue
-0.155

@<SCITEGIC>MOL_PROPERTY
U+W
SciTegic.value.DoubleValue
-53.314

@<SCITEGIC>MOL_PROPERTY
Grad RMS
SciTegic.value.DoubleValue
0.000000

@<SCITEGIC>MOL_PROPERTY
U
SciTegic.value.DoubleValue
7.937

@<SCITEGIC>MOL_PROPERTY
W
SciTegic.value.DoubleValue
-61.252

@<SCITEGIC>MOL_PROPERTY
W(PB)
SciTegic.value.DoubleValue
-63.556

@<SCITEGIC>MOL_PROPERTY
W(SA)
SciTegic.value.DoubleValue
2.304

@<SCITEGIC>MOL_PROPERTY
Valence
SciTegic.value.DoubleValue
7.358

@<SCITEGIC>MOL_PROPERTY
Coulomb
SciTegic.value.DoubleValue
-0.021

@<SCITEGIC>MOL_PROPERTY
VdW
SciTegic.value.DoubleValue
0.600

@<SCITEGIC>MOL_PROPERTY
VdW6
SciTegic.value.DoubleValue
-7.363

@<SCITEGIC>MOL_PROPERTY
VdW12
SciTegic.value.DoubleValue
7.964

@<SCITEGIC>MOL_PROPERTY
Bond
SciTegic.value.DoubleValue
0.121

@<SCITEGIC>MOL_PROPERTY
Angle
SciTegic.value.DoubleValue
2.425

@<SCITEGIC>MOL_PROPERTY
Pdih
SciTegic.value.DoubleValue
4.811

@<SCITEGIC>MOL_PROPERTY
Idih
SciTegic.value.DoubleValue
0.001

@<SCITEGIC>MOL_PROPERTY
Tether
SciTegic.value.DoubleValue
0.000

@<TRIPOS>MOLECULE
guest-s21_confgen4.mol2 : confsearch ligand conformer 291
          22          21           1
SMALL
USER_CHARGES
 
@<TRIPOS>ATOM
       1    C1      20.913803   22.040543   20.875829 C.2        1 MOL1         0.6145
       2    O1      21.735897   22.581506   21.588882 O.co2      1 MOL1        -0.6735
       3    O2      19.953106   22.614686   20.402238 O.co2      1 MOL1        -0.6735
       4    C2      21.111056   20.564267   20.542644 C.3        1 MOL1        -0.1985
       5    H1      22.163702   20.429019   20.267552 H          1 MOL1         0.0740
       6    H2      20.517003   20.323202   19.652768 H          1 MOL1         0.0740
       7    C3      20.751776   19.600248   21.703338 C.3        1 MOL1        -0.1882
       8    H3      21.070925   18.587814   21.425334 H          1 MOL1         0.0742
       9    H4      21.324556   19.879357   22.598560 H          1 MOL1         0.0742
      10    C4      19.238499   19.599404   22.027687 C.3        1 MOL1        -0.1880
      11    H5      18.670081   19.279352   21.143792 H          1 MOL1         0.0742
      12    H6      18.916338   20.626616   22.246863 H          1 MOL1         0.0742
      13    C5      18.866985   18.705713   23.234799 C.3        1 MOL1        -0.1880
      14    H7      19.435804   19.025990   24.118419 H          1 MOL1         0.0742
      15    H8      17.806757   18.867093   23.473074 H          1 MOL1         0.0742
      16    C6      19.099727   17.198811   22.982801 C.3        1 MOL1        -0.1856
      17    H9      20.167723   17.002208   22.821720 H          1 MOL1         0.0742
      18    H10     18.574877   16.890584   22.068076 H          1 MOL1         0.0742
      19    C7      18.606690   16.344814   24.168273 C.3        1 MOL1        -0.2871
      20    H11     19.135175   16.613841   25.092238 H          1 MOL1         0.0754
      21    H12     18.781763   15.278331   23.975852 H          1 MOL1         0.0754
      22    H13     17.530813   16.486752   24.334705 H          1 MOL1         0.0754
@<TRIPOS>BOND
    1     1     2    1
    2     1     3    2
    3     1     4    1
    4     4     5    1
    5     4     6    1
    6     4     7    1
    7     7     8    1
    8     7     9    1
    9     7    10    1
   10    10    11    1
   11    10    12    1
   12    10    13    1
   13    13    14    1
   14    13    15    1
   15    13    16    1
   16    16    17    1
   17    16    18    1
   18    16    19    1
   19    19    20    1
   20    19    21    1
   21    19    22    1
@<TRIPOS>SUBSTRUCTURE
       1 MOL1            1 RESIDUE      1      MOL     
@<SCITEGIC>MOL_PROPERTY
VConf Rank
SciTegic.value.IntegerValue
291

@<SCITEGIC>MOL_PROPERTY
Conf_Id
SciTegic.value.IntegerValue
53

@<SCITEGIC>MOL_PROPERTY
Delta U+W
SciTegic.value.DoubleValue
0.723

@<SCITEGIC>MOL_PROPERTY
U+W
SciTegic.value.DoubleValue
-52.436

@<SCITEGIC>MOL_PROPERTY
Grad RMS
SciTegic.value.DoubleValue
0.000000

@<SCITEGIC>MOL_PROPERTY
U
SciTegic.value.DoubleValue
8.587

@<SCITEGIC>MOL_PROPERTY
W
SciTegic.value.DoubleValue
-61.022

@<SCITEGIC>MOL_PROPERTY
W(PB)
SciTegic.value.DoubleValue
-63.285

@<SCITEGIC>MOL_PROPERTY
W(SA)
SciTegic.value.DoubleValue
2.263

@<SCITEGIC>MOL_PROPERTY
Valence
SciTegic.value.DoubleValue
7.933

@<SCITEGIC>MOL_PROPERTY
Coulomb
SciTegic.value.DoubleValue
-0.124

@<SCITEGIC>MOL_PROPERTY
VdW
SciTegic.value.DoubleValue
0.778

@<SCITEGIC>MOL_PROPERTY
VdW6
SciTegic.value.DoubleValue
-7.981

@<SCITEGIC>MOL_PROPERTY
VdW12
SciTegic.value.DoubleValue
8.759

@<SCITEGIC>MOL_PROPERTY
Bond
SciTegic.value.DoubleValue
0.160

@<SCITEGIC>MOL_PROPERTY
Angle
SciTegic.value.DoubleValue
2.698

@<SCITEGIC>MOL_PROPERTY
Pdih
SciTegic.value.DoubleValue
5.074

@<SCITEGIC>MOL_PROPERTY
Idih
SciTegic.value.DoubleValue
0.001

@<SCITEGIC>MOL_PROPERTY
Tether
SciTegic.value.DoubleValue
0.000

@<TRIPOS>MOLECULE
guest-s21_confgen4.mol2 : confsearch ligand conformer 292
          22          21           1
SMALL
USER_CHARGES
 
@<TRIPOS>ATOM
       1    C1      18.686156   19.543945   19.228661 C.2        1 MOL1         0.6145
       2    O1      19.132441   18.683024   18.496396 O.co2      1 MOL1        -0.6735
       3    O2      17.911806   20.405001   18.860496 O.co2      1 MOL1        -0.6735
       4    C2      19.103092   19.529976   20.694939 C.3        1 MOL1        -0.1985
       5    H1      19.102519   20.564074   21.059525 H          1 MOL1         0.0740
       6    H2      20.134515   19.163045   20.742440 H          1 MOL1         0.0740
       7    C3      18.177799   18.650913   21.573697 C.3        1 MOL1        -0.1882
       8    H3      17.135876   18.953609   21.399936 H          1 MOL1         0.0742
       9    H4      18.253036   17.605474   21.244076 H          1 MOL1         0.0742
      10    C4      18.467871   18.738515   23.093188 C.3        1 MOL1        -0.1880
      11    H5      17.723456   18.115924   23.608137 H          1 MOL1         0.0742
      12    H6      18.298541   19.763225   23.451312 H          1 MOL1         0.0742
      13    C5      19.877819   18.249181   23.510687 C.3        1 MOL1        -0.1880
      14    H7      19.795800   17.737169   24.479247 H          1 MOL1         0.0742
      15    H8      20.242884   17.497246   22.797747 H          1 MOL1         0.0742
      16    C6      20.905451   19.394960   23.658730 C.3        1 MOL1        -0.1856
      17    H9      20.553479   20.108518   24.416453 H          1 MOL1         0.0742
      18    H10     20.998268   19.954435   22.720253 H          1 MOL1         0.0742
      19    C7      22.292485   18.860772   24.068746 C.3        1 MOL1        -0.2871
      20    H11     22.241228   18.328937   25.027838 H          1 MOL1         0.0754
      21    H12     23.008421   19.685905   24.176555 H          1 MOL1         0.0754
      22    H13     22.685044   18.168020   23.312868 H          1 MOL1         0.0754
@<TRIPOS>BOND
    1     1     2    1
    2     1     3    2
    3     1     4    1
    4     4     5    1
    5     4     6    1
    6     4     7    1
    7     7     8    1
    8     7     9    1
    9     7    10    1
   10    10    11    1
   11    10    12    1
   12    10    13    1
   13    13    14    1
   14    13    15    1
   15    13    16    1
   16    16    17    1
   17    16    18    1
   18    16    19    1
   19    19    20    1
   20    19    21    1
   21    19    22    1
@<TRIPOS>SUBSTRUCTURE
       1 MOL1            1 RESIDUE      1      MOL     
@<SCITEGIC>MOL_PROPERTY
VConf Rank
SciTegic.value.IntegerValue
292

@<SCITEGIC>MOL_PROPERTY
Conf_Id
SciTegic.value.IntegerValue
5

@<SCITEGIC>MOL_PROPERTY
Delta U+W
SciTegic.value.DoubleValue
2.167

@<SCITEGIC>MOL_PROPERTY
U+W
SciTegic.value.DoubleValue
-50.993

@<SCITEGIC>MOL_PROPERTY
Grad RMS
SciTegic.value.DoubleValue
0.000000

@<SCITEGIC>MOL_PROPERTY
U
SciTegic.value.DoubleValue
10.045

@<SCITEGIC>MOL_PROPERTY
W
SciTegic.value.DoubleValue
-61.037

@<SCITEGIC>MOL_PROPERTY
W(PB)
SciTegic.value.DoubleValue
-63.303

@<SCITEGIC>MOL_PROPERTY
W(SA)
SciTegic.value.DoubleValue
2.266

@<SCITEGIC>MOL_PROPERTY
Valence
SciTegic.value.DoubleValue
10.100

@<SCITEGIC>MOL_PROPERTY
Coulomb
SciTegic.value.DoubleValue
-0.883

@<SCITEGIC>MOL_PROPERTY
VdW
SciTegic.value.DoubleValue
0.828

@<SCITEGIC>MOL_PROPERTY
VdW6
SciTegic.value.DoubleValue
-8.177

@<SCITEGIC>MOL_PROPERTY
VdW12
SciTegic.value.DoubleValue
9.005

@<SCITEGIC>MOL_PROPERTY
Bond
SciTegic.value.DoubleValue
0.182

@<SCITEGIC>MOL_PROPERTY
Angle
SciTegic.value.DoubleValue
2.988

@<SCITEGIC>MOL_PROPERTY
Pdih
SciTegic.value.DoubleValue
6.930

@<SCITEGIC>MOL_PROPERTY
Idih
SciTegic.value.DoubleValue
0.001

@<SCITEGIC>MOL_PROPERTY
Tether
SciTegic.value.DoubleValue
0.000

@<TRIPOS>MOLECULE
guest-s21_confgen4.mol2 : confsearch ligand conformer 293
          22          21           1
SMALL
USER_CHARGES
 
@<TRIPOS>ATOM
       1    C1      16.949674   18.179522   23.804787 C.2        1 MOL1         0.6145
       2    O1      17.154708   17.488157   24.782819 O.co2      1 MOL1        -0.6735
       3    O2      15.838702   18.470947   23.408054 O.co2      1 MOL1        -0.6735
       4    C2      18.151761   18.690672   23.018839 C.3        1 MOL1        -0.1985
       5    H1      18.962737   18.870068   23.733588 H          1 MOL1         0.0740
       6    H2      17.882910   19.656172   22.574082 H          1 MOL1         0.0740
       7    C3      18.613119   17.702790   21.917758 C.3        1 MOL1        -0.1882
       8    H3      18.953766   16.770363   22.388709 H          1 MOL1         0.0742
       9    H4      17.745398   17.435265   21.298959 H          1 MOL1         0.0742
      10    C4      19.726183   18.253382   20.991146 C.3        1 MOL1        -0.1880
      11    H5      19.359360   19.130421   20.440513 H          1 MOL1         0.0742
      12    H6      19.931281   17.487991   20.230187 H          1 MOL1         0.0742
      13    C5      21.057802   18.588077   21.709812 C.3        1 MOL1        -0.1880
      14    H7      21.174924   17.956401   22.601009 H          1 MOL1         0.0742
      15    H8      21.889319   18.328699   21.040263 H          1 MOL1         0.0742
      16    C6      21.192568   20.081629   22.086503 C.3        1 MOL1        -0.1856
      17    H9      20.363678   20.393383   22.733121 H          1 MOL1         0.0742
      18    H10     21.130929   20.696634   21.178117 H          1 MOL1         0.0742
      19    C7      22.527894   20.365575   22.803171 C.3        1 MOL1        -0.2871
      20    H11     22.604146   19.787864   23.733651 H          1 MOL1         0.0754
      21    H12     22.611728   21.430168   23.057427 H          1 MOL1         0.0754
      22    H13     23.380881   20.101396   22.164457 H          1 MOL1         0.0754
@<TRIPOS>BOND
    1     1     2    1
    2     1     3    2
    3     1     4    1
    4     4     5    1
    5     4     6    1
    6     4     7    1
    7     7     8    1
    8     7     9    1
    9     7    10    1
   10    10    11    1
   11    10    12    1
   12    10    13    1
   13    13    14    1
   14    13    15    1
   15    13    16    1
   16    16    17    1
   17    16    18    1
   18    16    19    1
   19    19    20    1
   20    19    21    1
   21    19    22    1
@<TRIPOS>SUBSTRUCTURE
       1 MOL1            1 RESIDUE      1      MOL     
@<SCITEGIC>MOL_PROPERTY
VConf Rank
SciTegic.value.IntegerValue
293

@<SCITEGIC>MOL_PROPERTY
Conf_Id
SciTegic.value.IntegerValue
6

@<SCITEGIC>MOL_PROPERTY
Delta U+W
SciTegic.value.DoubleValue
2.118

@<SCITEGIC>MOL_PROPERTY
U+W
SciTegic.value.DoubleValue
-51.042

@<SCITEGIC>MOL_PROPERTY
Grad RMS
SciTegic.value.DoubleValue
0.000000

@<SCITEGIC>MOL_PROPERTY
U
SciTegic.value.DoubleValue
10.045

@<SCITEGIC>MOL_PROPERTY
W
SciTegic.value.DoubleValue
-61.086

@<SCITEGIC>MOL_PROPERTY
W(PB)
SciTegic.value.DoubleValue
-63.356

@<SCITEGIC>MOL_PROPERTY
W(SA)
SciTegic.value.DoubleValue
2.270

@<SCITEGIC>MOL_PROPERTY
Valence
SciTegic.value.DoubleValue
10.100

@<SCITEGIC>MOL_PROPERTY
Coulomb
SciTegic.value.DoubleValue
-0.883

@<SCITEGIC>MOL_PROPERTY
VdW
SciTegic.value.DoubleValue
0.828

@<SCITEGIC>MOL_PROPERTY
VdW6
SciTegic.value.DoubleValue
-8.177

@<SCITEGIC>MOL_PROPERTY
VdW12
SciTegic.value.DoubleValue
9.004

@<SCITEGIC>MOL_PROPERTY
Bond
SciTegic.value.DoubleValue
0.182

@<SCITEGIC>MOL_PROPERTY
Angle
SciTegic.value.DoubleValue
2.988

@<SCITEGIC>MOL_PROPERTY
Pdih
SciTegic.value.DoubleValue
6.930

@<SCITEGIC>MOL_PROPERTY
Idih
SciTegic.value.DoubleValue
0.001

@<SCITEGIC>MOL_PROPERTY
Tether
SciTegic.value.DoubleValue
0.000

@<TRIPOS>MOLECULE
guest-s21_confgen4.mol2 : confsearch ligand conformer 294
          22          21           1
SMALL
USER_CHARGES
 
@<TRIPOS>ATOM
       1    C1      19.344256   21.429791   23.709326 C.2        1 MOL1         0.6145
       2    O1      18.657993   22.074917   22.940984 O.co2      1 MOL1        -0.6735
       3    O2      20.527558   21.640427   23.889560 O.co2      1 MOL1        -0.6735
       4    C2      18.670935   20.343102   24.545509 C.3        1 MOL1        -0.1985
       5    H1      17.937753   20.853272   25.180885 H          1 MOL1         0.0740
       6    H2      19.414324   19.899150   25.218652 H          1 MOL1         0.0740
       7    C3      17.948971   19.231783   23.732601 C.3        1 MOL1        -0.1882
       8    H3      17.220763   18.745710   24.395826 H          1 MOL1         0.0742
       9    H4      17.363002   19.682904   22.919764 H          1 MOL1         0.0742
      10    C4      18.880643   18.130816   23.168004 C.3        1 MOL1        -0.1880
      11    H5      18.252130   17.330332   22.754277 H          1 MOL1         0.0742
      12    H6      19.456986   17.678650   23.986664 H          1 MOL1         0.0742
      13    C5      19.844344   18.625015   22.065482 C.3        1 MOL1        -0.1880
      14    H7      19.277926   19.167775   21.296308 H          1 MOL1         0.0742
      15    H8      20.567181   19.332267   22.491351 H          1 MOL1         0.0742
      16    C6      20.612720   17.456070   21.413476 C.3        1 MOL1        -0.1856
      17    H9      19.901331   16.743065   20.974266 H          1 MOL1         0.0742
      18    H10     21.178379   16.911118   22.181898 H          1 MOL1         0.0742
      19    C7      21.580258   17.952212   20.320256 C.3        1 MOL1        -0.2871
      20    H11     21.036299   18.474580   19.522378 H          1 MOL1         0.0754
      21    H12     22.118767   17.109220   19.868154 H          1 MOL1         0.0754
      22    H13     22.322968   18.644353   20.738378 H          1 MOL1         0.0754
@<TRIPOS>BOND
    1     1     2    1
    2     1     3    2
    3     1     4    1
    4     4     5    1
    5     4     6    1
    6     4     7    1
    7     7     8    1
    8     7     9    1
    9     7    10    1
   10    10    11    1
   11    10    12    1
   12    10    13    1
   13    13    14    1
   14    13    15    1
   15    13    16    1
   16    16    17    1
   17    16    18    1
   18    16    19    1
   19    19    20    1
   20    19    21    1
   21    19    22    1
@<TRIPOS>SUBSTRUCTURE
       1 MOL1            1 RESIDUE      1      MOL     
@<SCITEGIC>MOL_PROPERTY
VConf Rank
SciTegic.value.IntegerValue
294

@<SCITEGIC>MOL_PROPERTY
Conf_Id
SciTegic.value.IntegerValue
8

@<SCITEGIC>MOL_PROPERTY
Delta U+W
SciTegic.value.DoubleValue
1.886

@<SCITEGIC>MOL_PROPERTY
U+W
SciTegic.value.DoubleValue
-51.274

@<SCITEGIC>MOL_PROPERTY
Grad RMS
SciTegic.value.DoubleValue
0.000000

@<SCITEGIC>MOL_PROPERTY
U
SciTegic.value.DoubleValue
11.237

@<SCITEGIC>MOL_PROPERTY
W
SciTegic.value.DoubleValue
-62.510

@<SCITEGIC>MOL_PROPERTY
W(PB)
SciTegic.value.DoubleValue
-64.777

@<SCITEGIC>MOL_PROPERTY
W(SA)
SciTegic.value.DoubleValue
2.267

@<SCITEGIC>MOL_PROPERTY
Valence
SciTegic.value.DoubleValue
9.029

@<SCITEGIC>MOL_PROPERTY
Coulomb
SciTegic.value.DoubleValue
1.667

@<SCITEGIC>MOL_PROPERTY
VdW
SciTegic.value.DoubleValue
0.540

@<SCITEGIC>MOL_PROPERTY
VdW6
SciTegic.value.DoubleValue
-8.825

@<SCITEGIC>MOL_PROPERTY
VdW12
SciTegic.value.DoubleValue
9.365

@<SCITEGIC>MOL_PROPERTY
Bond
SciTegic.value.DoubleValue
0.186

@<SCITEGIC>MOL_PROPERTY
Angle
SciTegic.value.DoubleValue
3.195

@<SCITEGIC>MOL_PROPERTY
Pdih
SciTegic.value.DoubleValue
5.642

@<SCITEGIC>MOL_PROPERTY
Idih
SciTegic.value.DoubleValue
0.007

@<SCITEGIC>MOL_PROPERTY
Tether
SciTegic.value.DoubleValue
0.000

@<TRIPOS>MOLECULE
guest-s21_confgen4.mol2 : confsearch ligand conformer 295
          22          21           1
SMALL
USER_CHARGES
 
@<TRIPOS>ATOM
       1    C1      19.445590   21.161156   20.312371 C.2        1 MOL1         0.6145
       2    O1      18.423863   20.645594   19.903674 O.co2      1 MOL1        -0.6735
       3    O2      20.345362   21.537187   19.586893 O.co2      1 MOL1        -0.6735
       4    C2      19.596434   21.376525   21.815710 C.3        1 MOL1        -0.1985
       5    H1      18.615994   21.251528   22.288808 H          1 MOL1         0.0740
       6    H2      19.881071   22.424255   21.967258 H          1 MOL1         0.0740
       7    C3      20.652743   20.456264   22.486886 C.3        1 MOL1        -0.1882
       8    H3      21.634858   20.667074   22.041538 H          1 MOL1         0.0742
       9    H4      20.735263   20.718104   23.550353 H          1 MOL1         0.0742
      10    C4      20.363548   18.940338   22.356251 C.3        1 MOL1        -0.1880
      11    H5      21.216708   18.395489   22.779632 H          1 MOL1         0.0742
      12    H6      20.314407   18.662174   21.294586 H          1 MOL1         0.0742
      13    C5      19.062732   18.497320   23.069733 C.3        1 MOL1        -0.1880
      14    H7      19.099599   18.791247   24.127438 H          1 MOL1         0.0742
      15    H8      18.208604   19.025571   22.626621 H          1 MOL1         0.0742
      16    C6      18.790497   16.978589   22.963228 C.3        1 MOL1        -0.1856
      17    H9      18.768545   16.679227   21.906214 H          1 MOL1         0.0742
      18    H10     17.788573   16.772626   23.364356 H          1 MOL1         0.0742
      19    C7      19.816707   16.114904   23.728574 C.3        1 MOL1        -0.2871
      20    H11     20.817301   16.192622   23.285718 H          1 MOL1         0.0754
      21    H12     19.523691   15.057409   23.701310 H          1 MOL1         0.0754
      22    H13     19.880412   16.420624   24.780988 H          1 MOL1         0.0754
@<TRIPOS>BOND
    1     1     2    1
    2     1     3    2
    3     1     4    1
    4     4     5    1
    5     4     6    1
    6     4     7    1
    7     7     8    1
    8     7     9    1
    9     7    10    1
   10    10    11    1
   11    10    12    1
   12    10    13    1
   13    13    14    1
   14    13    15    1
   15    13    16    1
   16    16    17    1
   17    16    18    1
   18    16    19    1
   19    19    20    1
   20    19    21    1
   21    19    22    1
@<TRIPOS>SUBSTRUCTURE
       1 MOL1            1 RESIDUE      1      MOL     
@<SCITEGIC>MOL_PROPERTY
VConf Rank
SciTegic.value.IntegerValue
295

@<SCITEGIC>MOL_PROPERTY
Conf_Id
SciTegic.value.IntegerValue
93

@<SCITEGIC>MOL_PROPERTY
Delta U+W
SciTegic.value.DoubleValue
1.836

@<SCITEGIC>MOL_PROPERTY
U+W
SciTegic.value.DoubleValue
-51.323

@<SCITEGIC>MOL_PROPERTY
Grad RMS
SciTegic.value.DoubleValue
0.000000

@<SCITEGIC>MOL_PROPERTY
U
SciTegic.value.DoubleValue
10.427

@<SCITEGIC>MOL_PROPERTY
W
SciTegic.value.DoubleValue
-61.751

@<SCITEGIC>MOL_PROPERTY
W(PB)
SciTegic.value.DoubleValue
-63.980

@<SCITEGIC>MOL_PROPERTY
W(SA)
SciTegic.value.DoubleValue
2.230

@<SCITEGIC>MOL_PROPERTY
Valence
SciTegic.value.DoubleValue
8.446

@<SCITEGIC>MOL_PROPERTY
Coulomb
SciTegic.value.DoubleValue
1.306

@<SCITEGIC>MOL_PROPERTY
VdW
SciTegic.value.DoubleValue
0.676

@<SCITEGIC>MOL_PROPERTY
VdW6
SciTegic.value.DoubleValue
-8.928

@<SCITEGIC>MOL_PROPERTY
VdW12
SciTegic.value.DoubleValue
9.604

@<SCITEGIC>MOL_PROPERTY
Bond
SciTegic.value.DoubleValue
0.209

@<SCITEGIC>MOL_PROPERTY
Angle
SciTegic.value.DoubleValue
3.066

@<SCITEGIC>MOL_PROPERTY
Pdih
SciTegic.value.DoubleValue
5.170

@<SCITEGIC>MOL_PROPERTY
Idih
SciTegic.value.DoubleValue
0.001

@<SCITEGIC>MOL_PROPERTY
Tether
SciTegic.value.DoubleValue
0.000

@<TRIPOS>MOLECULE
guest-s21_confgen4.mol2 : confsearch ligand conformer 296
          22          21           1
SMALL
USER_CHARGES
 
@<TRIPOS>ATOM
       1    C1      18.188387   21.740656   21.856907 C.2        1 MOL1         0.6145
       2    O1      17.076005   21.814074   21.372634 O.co2      1 MOL1        -0.6735
       3    O2      19.184292   22.188466   21.323610 O.co2      1 MOL1        -0.6735
       4    C2      18.335465   21.076143   23.222906 C.3        1 MOL1        -0.1985
       5    H1      17.590666   21.529737   23.887172 H          1 MOL1         0.0740
       6    H2      19.316505   21.335778   23.636259 H          1 MOL1         0.0740
       7    C3      18.135866   19.535689   23.205242 C.3        1 MOL1        -0.1882
       8    H3      18.201966   19.151839   24.232189 H          1 MOL1         0.0742
       9    H4      17.115207   19.318399   22.861198 H          1 MOL1         0.0742
      10    C4      19.136528   18.765941   22.308083 C.3        1 MOL1        -0.1880
      11    H5      19.052313   19.118694   21.271069 H          1 MOL1         0.0742
      12    H6      18.840514   17.709384   22.300444 H          1 MOL1         0.0742
      13    C5      20.606335   18.886801   22.779787 C.3        1 MOL1        -0.1880
      14    H7      20.906853   19.942408   22.761961 H          1 MOL1         0.0742
      15    H8      20.691176   18.553520   23.822965 H          1 MOL1         0.0742
      16    C6      21.600876   18.093789   21.900007 C.3        1 MOL1        -0.1856
      17    H9      22.623768   18.347170   22.210920 H          1 MOL1         0.0742
      18    H10     21.506897   18.414416   20.853228 H          1 MOL1         0.0742
      19    C7      21.420116   16.563051   21.994737 C.3        1 MOL1        -0.2871
      20    H11     20.455283   16.245806   21.580247 H          1 MOL1         0.0754
      21    H12     21.475764   16.224619   23.037553 H          1 MOL1         0.0754
      22    H13     22.208396   16.048430   21.430221 H          1 MOL1         0.0754
@<TRIPOS>BOND
    1     1     2    1
    2     1     3    2
    3     1     4    1
    4     4     5    1
    5     4     6    1
    6     4     7    1
    7     7     8    1
    8     7     9    1
    9     7    10    1
   10    10    11    1
   11    10    12    1
   12    10    13    1
   13    13    14    1
   14    13    15    1
   15    13    16    1
   16    16    17    1
   17    16    18    1
   18    16    19    1
   19    19    20    1
   20    19    21    1
   21    19    22    1
@<TRIPOS>SUBSTRUCTURE
       1 MOL1            1 RESIDUE      1      MOL     
@<SCITEGIC>MOL_PROPERTY
VConf Rank
SciTegic.value.IntegerValue
296

@<SCITEGIC>MOL_PROPERTY
Conf_Id
SciTegic.value.IntegerValue
70

@<SCITEGIC>MOL_PROPERTY
Delta U+W
SciTegic.value.DoubleValue
1.803

@<SCITEGIC>MOL_PROPERTY
U+W
SciTegic.value.DoubleValue
-51.356

@<SCITEGIC>MOL_PROPERTY
Grad RMS
SciTegic.value.DoubleValue
0.000000

@<SCITEGIC>MOL_PROPERTY
U
SciTegic.value.DoubleValue
10.428

@<SCITEGIC>MOL_PROPERTY
W
SciTegic.value.DoubleValue
-61.784

@<SCITEGIC>MOL_PROPERTY
W(PB)
SciTegic.value.DoubleValue
-64.014

@<SCITEGIC>MOL_PROPERTY
W(SA)
SciTegic.value.DoubleValue
2.230

@<SCITEGIC>MOL_PROPERTY
Valence
SciTegic.value.DoubleValue
8.445

@<SCITEGIC>MOL_PROPERTY
Coulomb
SciTegic.value.DoubleValue
1.306

@<SCITEGIC>MOL_PROPERTY
VdW
SciTegic.value.DoubleValue
0.676

@<SCITEGIC>MOL_PROPERTY
VdW6
SciTegic.value.DoubleValue
-8.929

@<SCITEGIC>MOL_PROPERTY
VdW12
SciTegic.value.DoubleValue
9.605

@<SCITEGIC>MOL_PROPERTY
Bond
SciTegic.value.DoubleValue
0.209

@<SCITEGIC>MOL_PROPERTY
Angle
SciTegic.value.DoubleValue
3.066

@<SCITEGIC>MOL_PROPERTY
Pdih
SciTegic.value.DoubleValue
5.170

@<SCITEGIC>MOL_PROPERTY
Idih
SciTegic.value.DoubleValue
0.001

@<SCITEGIC>MOL_PROPERTY
Tether
SciTegic.value.DoubleValue
0.000

@<TRIPOS>MOLECULE
guest-s21_confgen4.mol2 : confsearch ligand conformer 297
          22          21           1
SMALL
USER_CHARGES
 
@<TRIPOS>ATOM
       1    C1      18.184164   16.057906   22.549567 C.2        1 MOL1         0.6145
       2    O1      18.462774   15.532925   21.489528 O.co2      1 MOL1        -0.6735
       3    O2      17.044824   16.228473   22.936467 O.co2      1 MOL1        -0.6735
       4    C2      19.329634   16.507777   23.452124 C.3        1 MOL1        -0.1985
       5    H1      20.067927   15.697549   23.474312 H          1 MOL1         0.0740
       6    H2      18.947717   16.617050   24.474395 H          1 MOL1         0.0740
       7    C3      20.015114   17.820664   22.992312 C.3        1 MOL1        -0.1882
       8    H3      20.901829   17.997476   23.615801 H          1 MOL1         0.0742
       9    H4      20.371381   17.693489   21.961520 H          1 MOL1         0.0742
      10    C4      19.072692   19.044467   23.085647 C.3        1 MOL1        -0.1880
      11    H5      18.660234   19.100509   24.102298 H          1 MOL1         0.0742
      12    H6      18.215785   18.907924   22.411576 H          1 MOL1         0.0742
      13    C5      19.772131   20.386559   22.764554 C.3        1 MOL1        -0.1880
      14    H7      19.068855   21.204157   22.973903 H          1 MOL1         0.0742
      15    H8      20.624736   20.529125   23.442496 H          1 MOL1         0.0742
      16    C6      20.247806   20.497394   21.298397 C.3        1 MOL1        -0.1856
      17    H9      19.405758   20.302399   20.620016 H          1 MOL1         0.0742
      18    H10     21.010584   19.735890   21.089491 H          1 MOL1         0.0742
      19    C7      20.835278   21.891154   20.998327 C.3        1 MOL1        -0.2871
      20    H11     20.085786   22.676976   21.159872 H          1 MOL1         0.0754
      21    H12     21.171108   21.952820   19.955027 H          1 MOL1         0.0754
      22    H13     21.697332   22.101115   21.644974 H          1 MOL1         0.0754
@<TRIPOS>BOND
    1     1     2    1
    2     1     3    2
    3     1     4    1
    4     4     5    1
    5     4     6    1
    6     4     7    1
    7     7     8    1
    8     7     9    1
    9     7    10    1
   10    10    11    1
   11    10    12    1
   12    10    13    1
   13    13    14    1
   14    13    15    1
   15    13    16    1
   16    16    17    1
   17    16    18    1
   18    16    19    1
   19    19    20    1
   20    19    21    1
   21    19    22    1
@<TRIPOS>SUBSTRUCTURE
       1 MOL1            1 RESIDUE      1      MOL     
@<SCITEGIC>MOL_PROPERTY
VConf Rank
SciTegic.value.IntegerValue
297

@<SCITEGIC>MOL_PROPERTY
Conf_Id
SciTegic.value.IntegerValue
85

@<SCITEGIC>MOL_PROPERTY
Delta U+W
SciTegic.value.DoubleValue
0.707

@<SCITEGIC>MOL_PROPERTY
U+W
SciTegic.value.DoubleValue
-52.452

@<SCITEGIC>MOL_PROPERTY
Grad RMS
SciTegic.value.DoubleValue
0.000000

@<SCITEGIC>MOL_PROPERTY
U
SciTegic.value.DoubleValue
8.925

@<SCITEGIC>MOL_PROPERTY
W
SciTegic.value.DoubleValue
-61.378

@<SCITEGIC>MOL_PROPERTY
W(PB)
SciTegic.value.DoubleValue
-63.661

@<SCITEGIC>MOL_PROPERTY
W(SA)
SciTegic.value.DoubleValue
2.283

@<SCITEGIC>MOL_PROPERTY
Valence
SciTegic.value.DoubleValue
7.881

@<SCITEGIC>MOL_PROPERTY
Coulomb
SciTegic.value.DoubleValue
0.349

@<SCITEGIC>MOL_PROPERTY
VdW
SciTegic.value.DoubleValue
0.695

@<SCITEGIC>MOL_PROPERTY
VdW6
SciTegic.value.DoubleValue
-8.049

@<SCITEGIC>MOL_PROPERTY
VdW12
SciTegic.value.DoubleValue
8.743

@<SCITEGIC>MOL_PROPERTY
Bond
SciTegic.value.DoubleValue
0.156

@<SCITEGIC>MOL_PROPERTY
Angle
SciTegic.value.DoubleValue
2.660

@<SCITEGIC>MOL_PROPERTY
Pdih
SciTegic.value.DoubleValue
5.064

@<SCITEGIC>MOL_PROPERTY
Idih
SciTegic.value.DoubleValue
0.001

@<SCITEGIC>MOL_PROPERTY
Tether
SciTegic.value.DoubleValue
0.000

@<TRIPOS>MOLECULE
guest-s21_confgen4.mol2 : confsearch ligand conformer 298
          22          21           1
SMALL
USER_CHARGES
 
@<TRIPOS>ATOM
       1    C1      20.757922   19.794947   19.300972 C.2        1 MOL1         0.6145
       2    O1      20.511434   18.941064   18.472076 O.co2      1 MOL1        -0.6735
       3    O2      20.482079   20.969868   19.157984 O.co2      1 MOL1        -0.6735
       4    C2      21.473618   19.374771   20.581841 C.3        1 MOL1        -0.1985
       5    H1      22.282330   20.094434   20.755220 H          1 MOL1         0.0740
       6    H2      21.946855   18.399428   20.415687 H          1 MOL1         0.0740
       7    C3      20.555435   19.318569   21.830629 C.3        1 MOL1        -0.1882
       8    H3      21.185250   19.164354   22.715761 H          1 MOL1         0.0742
       9    H4      20.052069   20.286957   21.957610 H          1 MOL1         0.0742
      10    C4      19.505461   18.186484   21.746844 C.3        1 MOL1        -0.1880
      11    H5      20.018070   17.215759   21.706518 H          1 MOL1         0.0742
      12    H6      18.949734   18.278910   20.803729 H          1 MOL1         0.0742
      13    C5      18.481829   18.180759   22.909887 C.3        1 MOL1        -0.1880
      14    H7      17.898093   19.111414   22.902158 H          1 MOL1         0.0742
      15    H8      17.761417   17.375581   22.710988 H          1 MOL1         0.0742
      16    C6      19.094426   17.942960   24.312770 C.3        1 MOL1        -0.1856
      17    H9      20.019693   17.356194   24.230325 H          1 MOL1         0.0742
      18    H10     18.396738   17.331388   24.901421 H          1 MOL1         0.0742
      19    C7      19.356620   19.250813   25.092388 C.3        1 MOL1        -0.2871
      20    H11     20.060287   19.905892   24.566434 H          1 MOL1         0.0754
      21    H12     19.779085   19.030141   26.081147 H          1 MOL1         0.0754
      22    H13     18.423275   19.808659   25.243257 H          1 MOL1         0.0754
@<TRIPOS>BOND
    1     1     2    1
    2     1     3    2
    3     1     4    1
    4     4     5    1
    5     4     6    1
    6     4     7    1
    7     7     8    1
    8     7     9    1
    9     7    10    1
   10    10    11    1
   11    10    12    1
   12    10    13    1
   13    13    14    1
   14    13    15    1
   15    13    16    1
   16    16    17    1
   17    16    18    1
   18    16    19    1
   19    19    20    1
   20    19    21    1
   21    19    22    1
@<TRIPOS>SUBSTRUCTURE
       1 MOL1            1 RESIDUE      1      MOL     
@<SCITEGIC>MOL_PROPERTY
VConf Rank
SciTegic.value.IntegerValue
298

@<SCITEGIC>MOL_PROPERTY
Conf_Id
SciTegic.value.IntegerValue
82

@<SCITEGIC>MOL_PROPERTY
Delta U+W
SciTegic.value.DoubleValue
3.438

@<SCITEGIC>MOL_PROPERTY
U+W
SciTegic.value.DoubleValue
-49.721

@<SCITEGIC>MOL_PROPERTY
Grad RMS
SciTegic.value.DoubleValue
0.000000

@<SCITEGIC>MOL_PROPERTY
U
SciTegic.value.DoubleValue
11.773

@<SCITEGIC>MOL_PROPERTY
W
SciTegic.value.DoubleValue
-61.495

@<SCITEGIC>MOL_PROPERTY
W(PB)
SciTegic.value.DoubleValue
-63.749

@<SCITEGIC>MOL_PROPERTY
W(SA)
SciTegic.value.DoubleValue
2.254

@<SCITEGIC>MOL_PROPERTY
Valence
SciTegic.value.DoubleValue
10.419

@<SCITEGIC>MOL_PROPERTY
Coulomb
SciTegic.value.DoubleValue
0.565

@<SCITEGIC>MOL_PROPERTY
VdW
SciTegic.value.DoubleValue
0.789

@<SCITEGIC>MOL_PROPERTY
VdW6
SciTegic.value.DoubleValue
-8.847

@<SCITEGIC>MOL_PROPERTY
VdW12
SciTegic.value.DoubleValue
9.636

@<SCITEGIC>MOL_PROPERTY
Bond
SciTegic.value.DoubleValue
0.200

@<SCITEGIC>MOL_PROPERTY
Angle
SciTegic.value.DoubleValue
3.187

@<SCITEGIC>MOL_PROPERTY
Pdih
SciTegic.value.DoubleValue
7.032

@<SCITEGIC>MOL_PROPERTY
Idih
SciTegic.value.DoubleValue
0.001

@<SCITEGIC>MOL_PROPERTY
Tether
SciTegic.value.DoubleValue
0.000

@<TRIPOS>MOLECULE
guest-s21_confgen4.mol2 : confsearch ligand conformer 299
          22          21           1
SMALL
USER_CHARGES
 
@<TRIPOS>ATOM
       1    C1      17.706377   16.952343   23.930445 C.2        1 MOL1         0.6145
       2    O1      17.268034   17.559720   24.887483 O.co2      1 MOL1        -0.6735
       3    O2      17.009592   16.331958   23.151630 O.co2      1 MOL1        -0.6735
       4    C2      19.216567   16.950695   23.709712 C.3        1 MOL1        -0.1985
       5    H1      19.473982   16.112992   23.050281 H          1 MOL1         0.0740
       6    H2      19.688043   16.748311   24.678600 H          1 MOL1         0.0740
       7    C3      19.773149   18.277906   23.131424 C.3        1 MOL1        -0.1882
       8    H3      19.468049   19.113552   23.776317 H          1 MOL1         0.0742
       9    H4      20.869152   18.233678   23.158372 H          1 MOL1         0.0742
      10    C4      19.307524   18.536099   21.679662 C.3        1 MOL1        -0.1880
      11    H5      18.211914   18.469198   21.634883 H          1 MOL1         0.0742
      12    H6      19.690022   17.739756   21.026797 H          1 MOL1         0.0742
      13    C5      19.728966   19.914745   21.111994 C.3        1 MOL1        -0.1880
      14    H7      19.295965   20.003436   20.106255 H          1 MOL1         0.0742
      15    H8      19.274282   20.720631   21.704225 H          1 MOL1         0.0742
      16    C6      21.258894   20.129809   20.998138 C.3        1 MOL1        -0.1856
      17    H9      21.465173   20.708936   20.087447 H          1 MOL1         0.0742
      18    H10     21.770859   19.166202   20.869434 H          1 MOL1         0.0742
      19    C7      21.856676   20.898538   22.197613 C.3        1 MOL1        -0.2871
      20    H11     21.401585   21.893323   22.289157 H          1 MOL1         0.0754
      21    H12     22.937774   21.035089   22.065703 H          1 MOL1         0.0754
      22    H13     21.699386   20.366965   23.142914 H          1 MOL1         0.0754
@<TRIPOS>BOND
    1     1     2    1
    2     1     3    2
    3     1     4    1
    4     4     5    1
    5     4     6    1
    6     4     7    1
    7     7     8    1
    8     7     9    1
    9     7    10    1
   10    10    11    1
   11    10    12    1
   12    10    13    1
   13    13    14    1
   14    13    15    1
   15    13    16    1
   16    16    17    1
   17    16    18    1
   18    16    19    1
   19    19    20    1
   20    19    21    1
   21    19    22    1
@<TRIPOS>SUBSTRUCTURE
       1 MOL1            1 RESIDUE      1      MOL     
@<SCITEGIC>MOL_PROPERTY
VConf Rank
SciTegic.value.IntegerValue
299

@<SCITEGIC>MOL_PROPERTY
Conf_Id
SciTegic.value.IntegerValue
94

@<SCITEGIC>MOL_PROPERTY
Delta U+W
SciTegic.value.DoubleValue
3.471

@<SCITEGIC>MOL_PROPERTY
U+W
SciTegic.value.DoubleValue
-49.688

@<SCITEGIC>MOL_PROPERTY
Grad RMS
SciTegic.value.DoubleValue
0.000000

@<SCITEGIC>MOL_PROPERTY
U
SciTegic.value.DoubleValue
11.773

@<SCITEGIC>MOL_PROPERTY
W
SciTegic.value.DoubleValue
-61.461

@<SCITEGIC>MOL_PROPERTY
W(PB)
SciTegic.value.DoubleValue
-63.710

@<SCITEGIC>MOL_PROPERTY
W(SA)
SciTegic.value.DoubleValue
2.248

@<SCITEGIC>MOL_PROPERTY
Valence
SciTegic.value.DoubleValue
10.419

@<SCITEGIC>MOL_PROPERTY
Coulomb
SciTegic.value.DoubleValue
0.566

@<SCITEGIC>MOL_PROPERTY
VdW
SciTegic.value.DoubleValue
0.789

@<SCITEGIC>MOL_PROPERTY
VdW6
SciTegic.value.DoubleValue
-8.847

@<SCITEGIC>MOL_PROPERTY
VdW12
SciTegic.value.DoubleValue
9.636

@<SCITEGIC>MOL_PROPERTY
Bond
SciTegic.value.DoubleValue
0.200

@<SCITEGIC>MOL_PROPERTY
Angle
SciTegic.value.DoubleValue
3.187

@<SCITEGIC>MOL_PROPERTY
Pdih
SciTegic.value.DoubleValue
7.032

@<SCITEGIC>MOL_PROPERTY
Idih
SciTegic.value.DoubleValue
0.001

@<SCITEGIC>MOL_PROPERTY
Tether
SciTegic.value.DoubleValue
0.000

@<TRIPOS>MOLECULE
guest-s21_confgen4.mol2 : confsearch ligand conformer 300
          22          21           1
SMALL
USER_CHARGES
 
@<TRIPOS>ATOM
       1    C1      17.969485   16.698552   23.763065 C.2        1 MOL1         0.6145
       2    O1      17.785041   15.533552   23.470738 O.co2      1 MOL1        -0.6735
       3    O2      17.149340   17.385286   24.339549 O.co2      1 MOL1        -0.6735
       4    C2      19.295284   17.338648   23.367508 C.3        1 MOL1        -0.1985
       5    H1      20.072465   16.566254   23.407877 H          1 MOL1         0.0740
       6    H2      19.542654   18.089875   24.126126 H          1 MOL1         0.0740
       7    C3      19.253798   17.982581   21.957514 C.3        1 MOL1        -0.1882
       8    H3      18.923634   17.225316   21.233194 H          1 MOL1         0.0742
       9    H4      18.493023   18.774184   21.937186 H          1 MOL1         0.0742
      10    C4      20.620909   18.545796   21.494685 C.3        1 MOL1        -0.1880
      11    H5      20.517633   18.933347   20.472622 H          1 MOL1         0.0742
      12    H6      21.340443   17.718586   21.427307 H          1 MOL1         0.0742
      13    C5      21.221469   19.651061   22.402916 C.3        1 MOL1        -0.1880
      14    H7      21.477481   19.219820   23.379512 H          1 MOL1         0.0742
      15    H8      22.173465   19.983016   21.966962 H          1 MOL1         0.0742
      16    C6      20.315831   20.887811   22.622455 C.3        1 MOL1        -0.1856
      17    H9      20.831611   21.584209   23.297667 H          1 MOL1         0.0742
      18    H10     19.391870   20.593289   23.137775 H          1 MOL1         0.0742
      19    C7      19.969063   21.629804   21.313639 C.3        1 MOL1        -0.2871
      20    H11     20.879616   21.919494   20.773337 H          1 MOL1         0.0754
      21    H12     19.397972   22.542112   21.528799 H          1 MOL1         0.0754
      22    H13     19.359075   21.003773   20.650346 H          1 MOL1         0.0754
@<TRIPOS>BOND
    1     1     2    1
    2     1     3    2
    3     1     4    1
    4     4     5    1
    5     4     6    1
    6     4     7    1
    7     7     8    1
    8     7     9    1
    9     7    10    1
   10    10    11    1
   11    10    12    1
   12    10    13    1
   13    13    14    1
   14    13    15    1
   15    13    16    1
   16    16    17    1
   17    16    18    1
   18    16    19    1
   19    19    20    1
   20    19    21    1
   21    19    22    1
@<TRIPOS>SUBSTRUCTURE
       1 MOL1            1 RESIDUE      1      MOL     
@<SCITEGIC>MOL_PROPERTY
VConf Rank
SciTegic.value.IntegerValue
300

@<SCITEGIC>MOL_PROPERTY
Conf_Id
SciTegic.value.IntegerValue
56

@<SCITEGIC>MOL_PROPERTY
Delta U+W
SciTegic.value.DoubleValue
0.853

@<SCITEGIC>MOL_PROPERTY
U+W
SciTegic.value.DoubleValue
-52.307

@<SCITEGIC>MOL_PROPERTY
Grad RMS
SciTegic.value.DoubleValue
0.000000

@<SCITEGIC>MOL_PROPERTY
U
SciTegic.value.DoubleValue
8.874

@<SCITEGIC>MOL_PROPERTY
W
SciTegic.value.DoubleValue
-61.181

@<SCITEGIC>MOL_PROPERTY
W(PB)
SciTegic.value.DoubleValue
-63.413

@<SCITEGIC>MOL_PROPERTY
W(SA)
SciTegic.value.DoubleValue
2.232

@<SCITEGIC>MOL_PROPERTY
Valence
SciTegic.value.DoubleValue
8.479

@<SCITEGIC>MOL_PROPERTY
Coulomb
SciTegic.value.DoubleValue
-0.357

@<SCITEGIC>MOL_PROPERTY
VdW
SciTegic.value.DoubleValue
0.753

@<SCITEGIC>MOL_PROPERTY
VdW6
SciTegic.value.DoubleValue
-9.081

@<SCITEGIC>MOL_PROPERTY
VdW12
SciTegic.value.DoubleValue
9.833

@<SCITEGIC>MOL_PROPERTY
Bond
SciTegic.value.DoubleValue
0.221

@<SCITEGIC>MOL_PROPERTY
Angle
SciTegic.value.DoubleValue
3.208

@<SCITEGIC>MOL_PROPERTY
Pdih
SciTegic.value.DoubleValue
5.050

@<SCITEGIC>MOL_PROPERTY
Idih
SciTegic.value.DoubleValue
0.000

@<SCITEGIC>MOL_PROPERTY
Tether
SciTegic.value.DoubleValue
0.000

@<TRIPOS>MOLECULE
guest-s21_confgen4.mol2 : confsearch ligand conformer 301
          22          21           1
SMALL
USER_CHARGES
 
@<TRIPOS>ATOM
       1    C1      16.176963   19.025191   20.392483 C.2        1 MOL1         0.6145
       2    O1      16.580124   18.473804   19.386583 O.co2      1 MOL1        -0.6735
       3    O2      15.021671   19.369761   20.542457 O.co2      1 MOL1        -0.6735
       4    C2      17.145766   19.312587   21.540678 C.3        1 MOL1        -0.1985
       5    H1      16.745118   18.823963   22.436611 H          1 MOL1         0.0740
       6    H2      17.121578   20.392835   21.726280 H          1 MOL1         0.0740
       7    C3      18.609219   18.853932   21.303298 C.3        1 MOL1        -0.1882
       8    H3      18.625601   17.772008   21.111826 H          1 MOL1         0.0742
       9    H4      19.002474   19.342435   20.400965 H          1 MOL1         0.0742
      10    C4      19.516560   19.181942   22.508973 C.3        1 MOL1        -0.1880
      11    H5      19.121429   18.692531   23.409794 H          1 MOL1         0.0742
      12    H6      19.498455   20.264009   22.698536 H          1 MOL1         0.0742
      13    C5      20.971800   18.724974   22.270720 C.3        1 MOL1        -0.1880
      14    H7      20.990413   17.642937   22.081046 H          1 MOL1         0.0742
      15    H8      21.367383   19.214171   21.369983 H          1 MOL1         0.0742
      16    C6      21.879064   19.052389   23.475200 C.3        1 MOL1        -0.1856
      17    H9      21.487595   18.562984   24.377813 H          1 MOL1         0.0742
      18    H10     21.864521   20.134317   23.666765 H          1 MOL1         0.0742
      19    C7      23.331370   18.594547   23.233283 C.3        1 MOL1        -0.2871
      20    H11     23.379216   17.509927   23.069823 H          1 MOL1         0.0754
      21    H12     23.962103   18.834956   24.099003 H          1 MOL1         0.0754
      22    H13     23.758984   19.093079   22.353499 H          1 MOL1         0.0754
@<TRIPOS>BOND
    1     1     2    1
    2     1     3    2
    3     1     4    1
    4     4     5    1
    5     4     6    1
    6     4     7    1
    7     7     8    1
    8     7     9    1
    9     7    10    1
   10    10    11    1
   11    10    12    1
   12    10    13    1
   13    13    14    1
   14    13    15    1
   15    13    16    1
   16    16    17    1
   17    16    18    1
   18    16    19    1
   19    19    20    1
   20    19    21    1
   21    19    22    1
@<TRIPOS>SUBSTRUCTURE
       1 MOL1            1 RESIDUE      1      MOL     
@<SCITEGIC>MOL_PROPERTY
VConf Rank
SciTegic.value.IntegerValue
301

@<SCITEGIC>MOL_PROPERTY
Conf_Id
SciTegic.value.IntegerValue
0

@<SCITEGIC>MOL_PROPERTY
Delta U+W
SciTegic.value.DoubleValue
0.000

@<SCITEGIC>MOL_PROPERTY
U+W
SciTegic.value.DoubleValue
-53.159

@<SCITEGIC>MOL_PROPERTY
Grad RMS
SciTegic.value.DoubleValue
0.000000

@<SCITEGIC>MOL_PROPERTY
U
SciTegic.value.DoubleValue
6.763

@<SCITEGIC>MOL_PROPERTY
W
SciTegic.value.DoubleValue
-59.922

@<SCITEGIC>MOL_PROPERTY
W(PB)
SciTegic.value.DoubleValue
-62.256

@<SCITEGIC>MOL_PROPERTY
W(SA)
SciTegic.value.DoubleValue
2.334

@<SCITEGIC>MOL_PROPERTY
Valence
SciTegic.value.DoubleValue
7.600

@<SCITEGIC>MOL_PROPERTY
Coulomb
SciTegic.value.DoubleValue
-2.139

@<SCITEGIC>MOL_PROPERTY
VdW
SciTegic.value.DoubleValue
1.302

@<SCITEGIC>MOL_PROPERTY
VdW6
SciTegic.value.DoubleValue
-6.786

@<SCITEGIC>MOL_PROPERTY
VdW12
SciTegic.value.DoubleValue
8.088

@<SCITEGIC>MOL_PROPERTY
Bond
SciTegic.value.DoubleValue
0.134

@<SCITEGIC>MOL_PROPERTY
Angle
SciTegic.value.DoubleValue
2.720

@<SCITEGIC>MOL_PROPERTY
Pdih
SciTegic.value.DoubleValue
4.746

@<SCITEGIC>MOL_PROPERTY
Idih
SciTegic.value.DoubleValue
0.000

@<SCITEGIC>MOL_PROPERTY
Tether
SciTegic.value.DoubleValue
0.000

@<TRIPOS>MOLECULE
guest-s21_confgen4.mol2 : confsearch ligand conformer 302
          22          21           1
SMALL
USER_CHARGES
 
@<TRIPOS>ATOM
       1    C1      21.407687   22.432344   23.460922 C.2        1 MOL1         0.6145
       2    O1      21.660440   23.227965   22.578010 O.co2      1 MOL1        -0.6735
       3    O2      22.060301   22.328666   24.480616 O.co2      1 MOL1        -0.6735
       4    C2      20.219205   21.497065   23.268622 C.3        1 MOL1        -0.1985
       5    H1      19.457392   22.029409   22.686460 H          1 MOL1         0.0740
       6    H2      19.786732   21.288509   24.254591 H          1 MOL1         0.0740
       7    C3      20.603264   20.173417   22.562574 C.3        1 MOL1        -0.1882
       8    H3      21.046519   20.400051   21.582913 H          1 MOL1         0.0742
       9    H4      21.375847   19.659172   23.150996 H          1 MOL1         0.0742
      10    C4      19.383600   19.244491   22.379831 C.3        1 MOL1        -0.1880
      11    H5      18.612758   19.761988   21.792317 H          1 MOL1         0.0742
      12    H6      18.942140   19.020951   23.360808 H          1 MOL1         0.0742
      13    C5      19.769476   17.925873   21.675814 C.3        1 MOL1        -0.1880
      14    H7      20.210991   18.148989   20.694789 H          1 MOL1         0.0742
      15    H8      20.540320   17.408071   22.263017 H          1 MOL1         0.0742
      16    C6      18.551019   16.996929   21.492802 C.3        1 MOL1        -0.1856
      17    H9      17.778450   17.510754   20.904078 H          1 MOL1         0.0742
      18    H10     18.107763   16.769843   22.472309 H          1 MOL1         0.0742
      19    C7      18.940500   15.681285   20.789434 C.3        1 MOL1        -0.2871
      20    H11     19.689837   15.130704   21.373184 H          1 MOL1         0.0754
      21    H12     19.358202   15.877236   19.793174 H          1 MOL1         0.0754
      22    H13     18.062837   15.033268   20.667472 H          1 MOL1         0.0754
@<TRIPOS>BOND
    1     1     2    1
    2     1     3    2
    3     1     4    1
    4     4     5    1
    5     4     6    1
    6     4     7    1
    7     7     8    1
    8     7     9    1
    9     7    10    1
   10    10    11    1
   11    10    12    1
   12    10    13    1
   13    13    14    1
   14    13    15    1
   15    13    16    1
   16    16    17    1
   17    16    18    1
   18    16    19    1
   19    19    20    1
   20    19    21    1
   21    19    22    1
@<TRIPOS>SUBSTRUCTURE
       1 MOL1            1 RESIDUE      1      MOL     
@<SCITEGIC>MOL_PROPERTY
VConf Rank
SciTegic.value.IntegerValue
302

@<SCITEGIC>MOL_PROPERTY
Conf_Id
SciTegic.value.IntegerValue
10

@<SCITEGIC>MOL_PROPERTY
Delta U+W
SciTegic.value.DoubleValue
-1.291

@<SCITEGIC>MOL_PROPERTY
U+W
SciTegic.value.DoubleValue
-54.451

@<SCITEGIC>MOL_PROPERTY
Grad RMS
SciTegic.value.DoubleValue
0.000000

@<SCITEGIC>MOL_PROPERTY
U
SciTegic.value.DoubleValue
5.779

@<SCITEGIC>MOL_PROPERTY
W
SciTegic.value.DoubleValue
-60.230

@<SCITEGIC>MOL_PROPERTY
W(PB)
SciTegic.value.DoubleValue
-62.557

@<SCITEGIC>MOL_PROPERTY
W(SA)
SciTegic.value.DoubleValue
2.328

@<SCITEGIC>MOL_PROPERTY
Valence
SciTegic.value.DoubleValue
7.101

@<SCITEGIC>MOL_PROPERTY
Coulomb
SciTegic.value.DoubleValue
-2.079

@<SCITEGIC>MOL_PROPERTY
VdW
SciTegic.value.DoubleValue
0.757

@<SCITEGIC>MOL_PROPERTY
VdW6
SciTegic.value.DoubleValue
-6.496

@<SCITEGIC>MOL_PROPERTY
VdW12
SciTegic.value.DoubleValue
7.253

@<SCITEGIC>MOL_PROPERTY
Bond
SciTegic.value.DoubleValue
0.100

@<SCITEGIC>MOL_PROPERTY
Angle
SciTegic.value.DoubleValue
2.262

@<SCITEGIC>MOL_PROPERTY
Pdih
SciTegic.value.DoubleValue
4.738

@<SCITEGIC>MOL_PROPERTY
Idih
SciTegic.value.DoubleValue
0.001

@<SCITEGIC>MOL_PROPERTY
Tether
SciTegic.value.DoubleValue
0.000

@<TRIPOS>MOLECULE
guest-s21_confgen4.mol2 : confsearch ligand conformer 303
          22          21           1
SMALL
USER_CHARGES
 
@<TRIPOS>ATOM
       1    C1      21.708958   15.515609   21.924989 C.2        1 MOL1         0.6145
       2    O1      21.531753   14.806018   22.895314 O.co2      1 MOL1        -0.6735
       3    O2      21.952796   15.088031   20.814054 O.co2      1 MOL1        -0.6735
       4    C2      21.598448   17.025180   22.107168 C.3        1 MOL1        -0.1985
       5    H1      22.289963   17.504833   21.404042 H          1 MOL1         0.0740
       6    H2      21.941692   17.272312   23.118981 H          1 MOL1         0.0740
       7    C3      20.159836   17.554271   21.886692 C.3        1 MOL1        -0.1882
       8    H3      19.826453   17.287002   20.874301 H          1 MOL1         0.0742
       9    H4      19.477943   17.055449   22.589366 H          1 MOL1         0.0742
      10    C4      20.074561   19.084277   22.076829 C.3        1 MOL1        -0.1880
      11    H5      20.755571   19.580278   21.371802 H          1 MOL1         0.0742
      12    H6      20.416317   19.340711   23.088071 H          1 MOL1         0.0742
      13    C5      18.635888   19.606928   21.859309 C.3        1 MOL1        -0.1880
      14    H7      18.283027   19.281610   20.871083 H          1 MOL1         0.0742
      15    H8      17.960839   19.150831   22.596343 H          1 MOL1         0.0742
      16    C6      18.522807   21.147153   21.938232 C.3        1 MOL1        -0.1856
      17    H9      17.501783   21.440380   21.657583 H          1 MOL1         0.0742
      18    H10     19.192095   21.606855   21.197937 H          1 MOL1         0.0742
      19    C7      18.833974   21.711903   23.341244 C.3        1 MOL1        -0.2871
      20    H11     18.653793   22.794378   23.367776 H          1 MOL1         0.0754
      21    H12     19.882199   21.543175   23.617756 H          1 MOL1         0.0754
      22    H13     18.196726   21.244461   24.103180 H          1 MOL1         0.0754
@<TRIPOS>BOND
    1     1     2    1
    2     1     3    2
    3     1     4    1
    4     4     5    1
    5     4     6    1
    6     4     7    1
    7     7     8    1
    8     7     9    1
    9     7    10    1
   10    10    11    1
   11    10    12    1
   12    10    13    1
   13    13    14    1
   14    13    15    1
   15    13    16    1
   16    16    17    1
   17    16    18    1
   18    16    19    1
   19    19    20    1
   20    19    21    1
   21    19    22    1
@<TRIPOS>SUBSTRUCTURE
       1 MOL1            1 RESIDUE      1      MOL     
@<SCITEGIC>MOL_PROPERTY
VConf Rank
SciTegic.value.IntegerValue
303

@<SCITEGIC>MOL_PROPERTY
Conf_Id
SciTegic.value.IntegerValue
37

@<SCITEGIC>MOL_PROPERTY
Delta U+W
SciTegic.value.DoubleValue
-0.345

@<SCITEGIC>MOL_PROPERTY
U+W
SciTegic.value.DoubleValue
-53.504

@<SCITEGIC>MOL_PROPERTY
Grad RMS
SciTegic.value.DoubleValue
0.000000

@<SCITEGIC>MOL_PROPERTY
U
SciTegic.value.DoubleValue
6.751

@<SCITEGIC>MOL_PROPERTY
W
SciTegic.value.DoubleValue
-60.255

@<SCITEGIC>MOL_PROPERTY
W(PB)
SciTegic.value.DoubleValue
-62.592

@<SCITEGIC>MOL_PROPERTY
W(SA)
SciTegic.value.DoubleValue
2.336

@<SCITEGIC>MOL_PROPERTY
Valence
SciTegic.value.DoubleValue
7.602

@<SCITEGIC>MOL_PROPERTY
Coulomb
SciTegic.value.DoubleValue
-1.744

@<SCITEGIC>MOL_PROPERTY
VdW
SciTegic.value.DoubleValue
0.894

@<SCITEGIC>MOL_PROPERTY
VdW6
SciTegic.value.DoubleValue
-7.110

@<SCITEGIC>MOL_PROPERTY
VdW12
SciTegic.value.DoubleValue
8.004

@<SCITEGIC>MOL_PROPERTY
Bond
SciTegic.value.DoubleValue
0.131

@<SCITEGIC>MOL_PROPERTY
Angle
SciTegic.value.DoubleValue
2.489

@<SCITEGIC>MOL_PROPERTY
Pdih
SciTegic.value.DoubleValue
4.982

@<SCITEGIC>MOL_PROPERTY
Idih
SciTegic.value.DoubleValue
0.001

@<SCITEGIC>MOL_PROPERTY
Tether
SciTegic.value.DoubleValue
0.000

@<TRIPOS>MOLECULE
guest-s21_confgen4.mol2 : confsearch ligand conformer 304
          22          21           1
SMALL
USER_CHARGES
 
@<TRIPOS>ATOM
       1    C1      23.071316   20.674925   20.940897 C.2        1 MOL1         0.6145
       2    O1      23.965229   19.873556   20.753341 O.co2      1 MOL1        -0.6735
       3    O2      23.261453   21.843289   21.215181 O.co2      1 MOL1        -0.6735
       4    C2      21.631561   20.182241   20.848269 C.3        1 MOL1        -0.1985
       5    H1      21.592208   19.384124   20.097190 H          1 MOL1         0.0740
       6    H2      21.012151   21.007579   20.477063 H          1 MOL1         0.0740
       7    C3      21.082677   19.669317   22.202444 C.3        1 MOL1        -0.1882
       8    H3      21.720577   18.851950   22.566510 H          1 MOL1         0.0742
       9    H4      21.141698   20.475852   22.946438 H          1 MOL1         0.0742
      10    C4      19.624210   19.176626   22.082110 C.3        1 MOL1        -0.1880
      11    H5      19.575453   18.376775   21.331757 H          1 MOL1         0.0742
      12    H6      18.988586   19.996280   21.720165 H          1 MOL1         0.0742
      13    C5      19.082307   18.662096   23.435573 C.3        1 MOL1        -0.1880
      14    H7      19.685279   17.809040   23.775657 H          1 MOL1         0.0742
      15    H8      19.203354   19.449787   24.191764 H          1 MOL1         0.0742
      16    C6      17.591470   18.254351   23.385966 C.3        1 MOL1        -0.1856
      17    H9      16.984333   19.107212   23.052314 H          1 MOL1         0.0742
      18    H10     17.257341   18.015588   24.405076 H          1 MOL1         0.0742
      19    C7      17.320691   17.036457   22.476228 C.3        1 MOL1        -0.2871
      20    H11     17.939562   16.179467   22.772373 H          1 MOL1         0.0754
      21    H12     17.531715   17.267003   21.424553 H          1 MOL1         0.0754
      22    H13     16.268055   16.732836   22.544733 H          1 MOL1         0.0754
@<TRIPOS>BOND
    1     1     2    1
    2     1     3    2
    3     1     4    1
    4     4     5    1
    5     4     6    1
    6     4     7    1
    7     7     8    1
    8     7     9    1
    9     7    10    1
   10    10    11    1
   11    10    12    1
   12    10    13    1
   13    13    14    1
   14    13    15    1
   15    13    16    1
   16    16    17    1
   17    16    18    1
   18    16    19    1
   19    19    20    1
   20    19    21    1
   21    19    22    1
@<TRIPOS>SUBSTRUCTURE
       1 MOL1            1 RESIDUE      1      MOL     
@<SCITEGIC>MOL_PROPERTY
VConf Rank
SciTegic.value.IntegerValue
304

@<SCITEGIC>MOL_PROPERTY
Conf_Id
SciTegic.value.IntegerValue
38

@<SCITEGIC>MOL_PROPERTY
Delta U+W
SciTegic.value.DoubleValue
-0.439

@<SCITEGIC>MOL_PROPERTY
U+W
SciTegic.value.DoubleValue
-53.598

@<SCITEGIC>MOL_PROPERTY
Grad RMS
SciTegic.value.DoubleValue
0.000000

@<SCITEGIC>MOL_PROPERTY
U
SciTegic.value.DoubleValue
6.751

@<SCITEGIC>MOL_PROPERTY
W
SciTegic.value.DoubleValue
-60.350

@<SCITEGIC>MOL_PROPERTY
W(PB)
SciTegic.value.DoubleValue
-62.659

@<SCITEGIC>MOL_PROPERTY
W(SA)
SciTegic.value.DoubleValue
2.309

@<SCITEGIC>MOL_PROPERTY
Valence
SciTegic.value.DoubleValue
7.602

@<SCITEGIC>MOL_PROPERTY
Coulomb
SciTegic.value.DoubleValue
-1.744

@<SCITEGIC>MOL_PROPERTY
VdW
SciTegic.value.DoubleValue
0.893

@<SCITEGIC>MOL_PROPERTY
VdW6
SciTegic.value.DoubleValue
-7.110

@<SCITEGIC>MOL_PROPERTY
VdW12
SciTegic.value.DoubleValue
8.004

@<SCITEGIC>MOL_PROPERTY
Bond
SciTegic.value.DoubleValue
0.131

@<SCITEGIC>MOL_PROPERTY
Angle
SciTegic.value.DoubleValue
2.489

@<SCITEGIC>MOL_PROPERTY
Pdih
SciTegic.value.DoubleValue
4.981

@<SCITEGIC>MOL_PROPERTY
Idih
SciTegic.value.DoubleValue
0.001

@<SCITEGIC>MOL_PROPERTY
Tether
SciTegic.value.DoubleValue
0.000

@<TRIPOS>MOLECULE
guest-s21_confgen4.mol2 : confsearch ligand conformer 305
          22          21           1
SMALL
USER_CHARGES
 
@<TRIPOS>ATOM
       1    C1      23.313981   20.546443   22.257563 C.2        1 MOL1         0.6145
       2    O1      23.519301   21.742008   22.186645 O.co2      1 MOL1        -0.6735
       3    O2      24.146523   19.703718   21.986973 O.co2      1 MOL1        -0.6735
       4    C2      21.928439   20.078159   22.687998 C.3        1 MOL1        -0.1985
       5    H1      21.521959   20.817683   23.388208 H          1 MOL1         0.0740
       6    H2      22.051386   19.139901   23.240282 H          1 MOL1         0.0740
       7    C3      20.961385   19.887080   21.490540 C.3        1 MOL1        -0.1882
       8    H3      20.939263   20.816997   20.905550 H          1 MOL1         0.0742
       9    H4      21.354292   19.109404   20.821110 H          1 MOL1         0.0742
      10    C4      19.514674   19.533500   21.910933 C.3        1 MOL1        -0.1880
      11    H5      18.884242   19.560434   21.013069 H          1 MOL1         0.0742
      12    H6      19.128019   20.308481   22.586632 H          1 MOL1         0.0742
      13    C5      19.391646   18.144296   22.583984 C.3        1 MOL1        -0.1880
      14    H7      19.779991   17.369625   21.908873 H          1 MOL1         0.0742
      15    H8      20.019217   18.116957   23.483699 H          1 MOL1         0.0742
      16    C6      17.944864   17.789499   22.999986 C.3        1 MOL1        -0.1856
      17    H9      17.548589   18.568079   23.666373 H          1 MOL1         0.0742
      18    H10     17.965878   16.860771   23.586731 H          1 MOL1         0.0742
      19    C7      16.990979   17.595467   21.801191 C.3        1 MOL1        -0.2871
      20    H11     16.840564   18.532828   21.251505 H          1 MOL1         0.0754
      21    H12     16.007021   17.252152   22.145980 H          1 MOL1         0.0754
      22    H13     17.384744   16.845355   21.103048 H          1 MOL1         0.0754
@<TRIPOS>BOND
    1     1     2    1
    2     1     3    2
    3     1     4    1
    4     4     5    1
    5     4     6    1
    6     4     7    1
    7     7     8    1
    8     7     9    1
    9     7    10    1
   10    10    11    1
   11    10    12    1
   12    10    13    1
   13    13    14    1
   14    13    15    1
   15    13    16    1
   16    16    17    1
   17    16    18    1
   18    16    19    1
   19    19    20    1
   20    19    21    1
   21    19    22    1
@<TRIPOS>SUBSTRUCTURE
       1 MOL1            1 RESIDUE      1      MOL     
@<SCITEGIC>MOL_PROPERTY
VConf Rank
SciTegic.value.IntegerValue
305

@<SCITEGIC>MOL_PROPERTY
Conf_Id
SciTegic.value.IntegerValue
60

@<SCITEGIC>MOL_PROPERTY
Delta U+W
SciTegic.value.DoubleValue
0.386

@<SCITEGIC>MOL_PROPERTY
U+W
SciTegic.value.DoubleValue
-52.773

@<SCITEGIC>MOL_PROPERTY
Grad RMS
SciTegic.value.DoubleValue
0.000000

@<SCITEGIC>MOL_PROPERTY
U
SciTegic.value.DoubleValue
7.689

@<SCITEGIC>MOL_PROPERTY
W
SciTegic.value.DoubleValue
-60.463

@<SCITEGIC>MOL_PROPERTY
W(PB)
SciTegic.value.DoubleValue
-62.772

@<SCITEGIC>MOL_PROPERTY
W(SA)
SciTegic.value.DoubleValue
2.309

@<SCITEGIC>MOL_PROPERTY
Valence
SciTegic.value.DoubleValue
8.197

@<SCITEGIC>MOL_PROPERTY
Coulomb
SciTegic.value.DoubleValue
-1.561

@<SCITEGIC>MOL_PROPERTY
VdW
SciTegic.value.DoubleValue
1.053

@<SCITEGIC>MOL_PROPERTY
VdW6
SciTegic.value.DoubleValue
-7.737

@<SCITEGIC>MOL_PROPERTY
VdW12
SciTegic.value.DoubleValue
8.790

@<SCITEGIC>MOL_PROPERTY
Bond
SciTegic.value.DoubleValue
0.181

@<SCITEGIC>MOL_PROPERTY
Angle
SciTegic.value.DoubleValue
2.780

@<SCITEGIC>MOL_PROPERTY
Pdih
SciTegic.value.DoubleValue
5.235

@<SCITEGIC>MOL_PROPERTY
Idih
SciTegic.value.DoubleValue
0.001

@<SCITEGIC>MOL_PROPERTY
Tether
SciTegic.value.DoubleValue
0.000

@<TRIPOS>MOLECULE
guest-s21_confgen4.mol2 : confsearch ligand conformer 306
          22          21           1
SMALL
USER_CHARGES
 
@<TRIPOS>ATOM
       1    C1      19.592739   16.348106   24.959477 C.2        1 MOL1         0.6145
       2    O1      18.449826   16.285484   25.367353 O.co2      1 MOL1        -0.6735
       3    O2      20.550276   15.919667   25.572766 O.co2      1 MOL1        -0.6735
       4    C2      19.841772   17.021488   23.614551 C.3        1 MOL1        -0.1985
       5    H1      18.974370   16.819926   22.976234 H          1 MOL1         0.0740
       6    H2      20.708897   16.538850   23.148107 H          1 MOL1         0.0740
       7    C3      20.084497   18.547887   23.744182 C.3        1 MOL1        -0.1882
       8    H3      19.191029   19.027637   24.167088 H          1 MOL1         0.0742
       9    H4      20.896194   18.714048   24.465975 H          1 MOL1         0.0742
      10    C4      20.463261   19.232108   22.408854 C.3        1 MOL1        -0.1880
      11    H5      21.351764   18.744871   21.984791 H          1 MOL1         0.0742
      12    H6      20.751096   20.268151   22.628155 H          1 MOL1         0.0742
      13    C5      19.316933   19.226410   21.367740 C.3        1 MOL1        -0.1880
      14    H7      19.030233   18.190877   21.145137 H          1 MOL1         0.0742
      15    H8      18.427892   19.711989   21.792616 H          1 MOL1         0.0742
      16    C6      19.694469   19.914371   20.034965 C.3        1 MOL1        -0.1856
      17    H9      18.884525   19.747066   19.311608 H          1 MOL1         0.0742
      18    H10     20.590374   19.438888   19.612398 H          1 MOL1         0.0742
      19    C7      19.927964   21.434604   20.172893 C.3        1 MOL1        -0.2871
      20    H11     19.057268   21.926435   20.625788 H          1 MOL1         0.0754
      21    H12     20.096773   21.887424   19.187309 H          1 MOL1         0.0754
      22    H13     20.807302   21.651593   20.791850 H          1 MOL1         0.0754
@<TRIPOS>BOND
    1     1     2    1
    2     1     3    2
    3     1     4    1
    4     4     5    1
    5     4     6    1
    6     4     7    1
    7     7     8    1
    8     7     9    1
    9     7    10    1
   10    10    11    1
   11    10    12    1
   12    10    13    1
   13    13    14    1
   14    13    15    1
   15    13    16    1
   16    16    17    1
   17    16    18    1
   18    16    19    1
   19    19    20    1
   20    19    21    1
   21    19    22    1
@<TRIPOS>SUBSTRUCTURE
       1 MOL1            1 RESIDUE      1      MOL     
@<SCITEGIC>MOL_PROPERTY
VConf Rank
SciTegic.value.IntegerValue
306

@<SCITEGIC>MOL_PROPERTY
Conf_Id
SciTegic.value.IntegerValue
28

@<SCITEGIC>MOL_PROPERTY
Delta U+W
SciTegic.value.DoubleValue
0.351

@<SCITEGIC>MOL_PROPERTY
U+W
SciTegic.value.DoubleValue
-52.808

@<SCITEGIC>MOL_PROPERTY
Grad RMS
SciTegic.value.DoubleValue
0.000000

@<SCITEGIC>MOL_PROPERTY
U
SciTegic.value.DoubleValue
7.689

@<SCITEGIC>MOL_PROPERTY
W
SciTegic.value.DoubleValue
-60.498

@<SCITEGIC>MOL_PROPERTY
W(PB)
SciTegic.value.DoubleValue
-62.768

@<SCITEGIC>MOL_PROPERTY
W(SA)
SciTegic.value.DoubleValue
2.270

@<SCITEGIC>MOL_PROPERTY
Valence
SciTegic.value.DoubleValue
8.197

@<SCITEGIC>MOL_PROPERTY
Coulomb
SciTegic.value.DoubleValue
-1.561

@<SCITEGIC>MOL_PROPERTY
VdW
SciTegic.value.DoubleValue
1.053

@<SCITEGIC>MOL_PROPERTY
VdW6
SciTegic.value.DoubleValue
-7.737

@<SCITEGIC>MOL_PROPERTY
VdW12
SciTegic.value.DoubleValue
8.791

@<SCITEGIC>MOL_PROPERTY
Bond
SciTegic.value.DoubleValue
0.181

@<SCITEGIC>MOL_PROPERTY
Angle
SciTegic.value.DoubleValue
2.780

@<SCITEGIC>MOL_PROPERTY
Pdih
SciTegic.value.DoubleValue
5.235

@<SCITEGIC>MOL_PROPERTY
Idih
SciTegic.value.DoubleValue
0.001

@<SCITEGIC>MOL_PROPERTY
Tether
SciTegic.value.DoubleValue
0.000

@<TRIPOS>MOLECULE
guest-s21_confgen4.mol2 : confsearch ligand conformer 307
          22          21           1
SMALL
USER_CHARGES
 
@<TRIPOS>ATOM
       1    C1      19.276317   16.435194   25.007617 C.2        1 MOL1         0.6145
       2    O1      18.194301   15.882289   25.010184 O.co2      1 MOL1        -0.6735
       3    O2      20.324080   15.864920   25.238781 O.co2      1 MOL1        -0.6735
       4    C2      19.323957   17.922606   24.676469 C.3        1 MOL1        -0.1985
       5    H1      20.156146   18.369334   25.233735 H          1 MOL1         0.0740
       6    H2      18.400649   18.383713   25.047278 H          1 MOL1         0.0740
       7    C3      19.488037   18.196583   23.161115 C.3        1 MOL1        -0.1882
       8    H3      20.406961   17.708857   22.810158 H          1 MOL1         0.0742
       9    H4      18.652332   17.735612   22.616682 H          1 MOL1         0.0742
      10    C4      19.538148   19.711372   22.854582 C.3        1 MOL1        -0.1880
      11    H5      20.404792   20.162842   23.356669 H          1 MOL1         0.0742
      12    H6      18.646832   20.191480   23.281215 H          1 MOL1         0.0742
      13    C5      19.590714   20.032687   21.342115 C.3        1 MOL1        -0.1880
      14    H7      18.722082   19.584824   20.840290 H          1 MOL1         0.0742
      15    H8      19.496899   21.119739   21.213885 H          1 MOL1         0.0742
      16    C6      20.891188   19.557451   20.655667 C.3        1 MOL1        -0.1856
      17    H9      20.966490   18.463200   20.703669 H          1 MOL1         0.0742
      18    H10     21.761677   19.962844   21.189625 H          1 MOL1         0.0742
      19    C7      20.944975   19.999073   19.179256 C.3        1 MOL1        -0.2871
      20    H11     20.910747   21.093144   19.094445 H          1 MOL1         0.0754
      21    H12     20.099489   19.584602   18.614673 H          1 MOL1         0.0754
      22    H13     21.872083   19.651524   18.705178 H          1 MOL1         0.0754
@<TRIPOS>BOND
    1     1     2    1
    2     1     3    2
    3     1     4    1
    4     4     5    1
    5     4     6    1
    6     4     7    1
    7     7     8    1
    8     7     9    1
    9     7    10    1
   10    10    11    1
   11    10    12    1
   12    10    13    1
   13    13    14    1
   14    13    15    1
   15    13    16    1
   16    16    17    1
   17    16    18    1
   18    16    19    1
   19    19    20    1
   20    19    21    1
   21    19    22    1
@<TRIPOS>SUBSTRUCTURE
       1 MOL1            1 RESIDUE      1      MOL     
@<SCITEGIC>MOL_PROPERTY
VConf Rank
SciTegic.value.IntegerValue
307

@<SCITEGIC>MOL_PROPERTY
Conf_Id
SciTegic.value.IntegerValue
50

@<SCITEGIC>MOL_PROPERTY
Delta U+W
SciTegic.value.DoubleValue
-0.486

@<SCITEGIC>MOL_PROPERTY
U+W
SciTegic.value.DoubleValue
-53.646

@<SCITEGIC>MOL_PROPERTY
Grad RMS
SciTegic.value.DoubleValue
0.000000

@<SCITEGIC>MOL_PROPERTY
U
SciTegic.value.DoubleValue
7.026

@<SCITEGIC>MOL_PROPERTY
W
SciTegic.value.DoubleValue
-60.672

@<SCITEGIC>MOL_PROPERTY
W(PB)
SciTegic.value.DoubleValue
-62.964

@<SCITEGIC>MOL_PROPERTY
W(SA)
SciTegic.value.DoubleValue
2.292

@<SCITEGIC>MOL_PROPERTY
Valence
SciTegic.value.DoubleValue
7.637

@<SCITEGIC>MOL_PROPERTY
Coulomb
SciTegic.value.DoubleValue
-1.488

@<SCITEGIC>MOL_PROPERTY
VdW
SciTegic.value.DoubleValue
0.877

@<SCITEGIC>MOL_PROPERTY
VdW6
SciTegic.value.DoubleValue
-7.165

@<SCITEGIC>MOL_PROPERTY
VdW12
SciTegic.value.DoubleValue
8.043

@<SCITEGIC>MOL_PROPERTY
Bond
SciTegic.value.DoubleValue
0.134

@<SCITEGIC>MOL_PROPERTY
Angle
SciTegic.value.DoubleValue
2.513

@<SCITEGIC>MOL_PROPERTY
Pdih
SciTegic.value.DoubleValue
4.990

@<SCITEGIC>MOL_PROPERTY
Idih
SciTegic.value.DoubleValue
0.001

@<SCITEGIC>MOL_PROPERTY
Tether
SciTegic.value.DoubleValue
0.000

@<TRIPOS>MOLECULE
guest-s21_confgen4.mol2 : confsearch ligand conformer 308
          22          21           1
SMALL
USER_CHARGES
 
@<TRIPOS>ATOM
       1    C1      18.627302   15.482841   21.791751 C.2        1 MOL1         0.6145
       2    O1      18.466377   15.104331   20.648377 O.co2      1 MOL1        -0.6735
       3    O2      17.869358   15.214067   22.702650 O.co2      1 MOL1        -0.6735
       4    C2      19.836138   16.360561   22.096139 C.3        1 MOL1        -0.1985
       5    H1      20.652913   16.058109   21.429794 H          1 MOL1         0.0740
       6    H2      20.160127   16.150351   23.122537 H          1 MOL1         0.0740
       7    C3      19.540109   17.871381   21.928547 C.3        1 MOL1        -0.1882
       8    H3      19.208475   18.063894   20.898857 H          1 MOL1         0.0742
       9    H4      18.707401   18.144943   22.589781 H          1 MOL1         0.0742
      10    C4      20.780751   18.737448   22.247612 C.3        1 MOL1        -0.1880
      11    H5      21.622611   18.396270   21.629688 H          1 MOL1         0.0742
      12    H6      21.080738   18.584545   23.293374 H          1 MOL1         0.0742
      13    C5      20.562301   20.246739   21.987075 C.3        1 MOL1        -0.1880
      14    H7      21.522273   20.764822   22.117350 H          1 MOL1         0.0742
      15    H8      20.266146   20.400477   20.940371 H          1 MOL1         0.0742
      16    C6      19.514935   20.888990   22.924533 C.3        1 MOL1        -0.1856
      17    H9      19.782904   20.689975   23.971334 H          1 MOL1         0.0742
      18    H10     18.528223   20.438488   22.754808 H          1 MOL1         0.0742
      19    C7      19.415502   22.411608   22.702127 C.3        1 MOL1        -0.2871
      20    H11     19.121791   22.638881   21.668945 H          1 MOL1         0.0754
      21    H12     20.377517   22.901837   22.901025 H          1 MOL1         0.0754
      22    H13     18.665976   22.852199   23.372321 H          1 MOL1         0.0754
@<TRIPOS>BOND
    1     1     2    1
    2     1     3    2
    3     1     4    1
    4     4     5    1
    5     4     6    1
    6     4     7    1
    7     7     8    1
    8     7     9    1
    9     7    10    1
   10    10    11    1
   11    10    12    1
   12    10    13    1
   13    13    14    1
   14    13    15    1
   15    13    16    1
   16    16    17    1
   17    16    18    1
   18    16    19    1
   19    19    20    1
   20    19    21    1
   21    19    22    1
@<TRIPOS>SUBSTRUCTURE
       1 MOL1            1 RESIDUE      1      MOL     
@<SCITEGIC>MOL_PROPERTY
VConf Rank
SciTegic.value.IntegerValue
308

@<SCITEGIC>MOL_PROPERTY
Conf_Id
SciTegic.value.IntegerValue
51

@<SCITEGIC>MOL_PROPERTY
Delta U+W
SciTegic.value.DoubleValue
-0.517

@<SCITEGIC>MOL_PROPERTY
U+W
SciTegic.value.DoubleValue
-53.677

@<SCITEGIC>MOL_PROPERTY
Grad RMS
SciTegic.value.DoubleValue
0.000000

@<SCITEGIC>MOL_PROPERTY
U
SciTegic.value.DoubleValue
7.026

@<SCITEGIC>MOL_PROPERTY
W
SciTegic.value.DoubleValue
-60.703

@<SCITEGIC>MOL_PROPERTY
W(PB)
SciTegic.value.DoubleValue
-63.007

@<SCITEGIC>MOL_PROPERTY
W(SA)
SciTegic.value.DoubleValue
2.304

@<SCITEGIC>MOL_PROPERTY
Valence
SciTegic.value.DoubleValue
7.638

@<SCITEGIC>MOL_PROPERTY
Coulomb
SciTegic.value.DoubleValue
-1.488

@<SCITEGIC>MOL_PROPERTY
VdW
SciTegic.value.DoubleValue
0.877

@<SCITEGIC>MOL_PROPERTY
VdW6
SciTegic.value.DoubleValue
-7.165

@<SCITEGIC>MOL_PROPERTY
VdW12
SciTegic.value.DoubleValue
8.042

@<SCITEGIC>MOL_PROPERTY
Bond
SciTegic.value.DoubleValue
0.134

@<SCITEGIC>MOL_PROPERTY
Angle
SciTegic.value.DoubleValue
2.513

@<SCITEGIC>MOL_PROPERTY
Pdih
SciTegic.value.DoubleValue
4.990

@<SCITEGIC>MOL_PROPERTY
Idih
SciTegic.value.DoubleValue
0.001

@<SCITEGIC>MOL_PROPERTY
Tether
SciTegic.value.DoubleValue
0.000

@<TRIPOS>MOLECULE
guest-s21_confgen4.mol2 : confsearch ligand conformer 309
          22          21           1
SMALL
USER_CHARGES
 
@<TRIPOS>ATOM
       1    C1      21.867538   20.773639   24.553443 C.2        1 MOL1         0.6145
       2    O1      21.370390   20.862365   25.658826 O.co2      1 MOL1        -0.6735
       3    O2      22.951266   20.265903   24.342420 O.co2      1 MOL1        -0.6735
       4    C2      21.095261   21.348992   23.369513 C.3        1 MOL1        -0.1985
       5    H1      21.793455   21.504160   22.538036 H          1 MOL1         0.0740
       6    H2      20.730077   22.339256   23.666263 H          1 MOL1         0.0740
       7    C3      19.901065   20.472963   22.909664 C.3        1 MOL1        -0.1882
       8    H3      19.225698   20.303118   23.759773 H          1 MOL1         0.0742
       9    H4      19.325294   21.023794   22.153611 H          1 MOL1         0.0742
      10    C4      20.350882   19.117552   22.319653 C.3        1 MOL1        -0.1880
      11    H5      20.913251   18.552928   23.076191 H          1 MOL1         0.0742
      12    H6      21.035948   19.292620   21.478790 H          1 MOL1         0.0742
      13    C5      19.148954   18.275733   21.839902 C.3        1 MOL1        -0.1880
      14    H7      18.464391   18.101070   22.681314 H          1 MOL1         0.0742
      15    H8      18.586586   18.837077   21.081158 H          1 MOL1         0.0742
      16    C6      19.597332   16.921661   21.251268 C.3        1 MOL1        -0.1856
      17    H9      20.158768   16.356484   22.008147 H          1 MOL1         0.0742
      18    H10     20.281035   17.092410   20.408144 H          1 MOL1         0.0742
      19    C7      18.394415   16.083548   20.773865 C.3        1 MOL1        -0.2871
      20    H11     17.709292   15.870917   21.605007 H          1 MOL1         0.0754
      21    H12     18.731321   15.124822   20.358626 H          1 MOL1         0.0754
      22    H13     17.832413   16.612415   19.992938 H          1 MOL1         0.0754
@<TRIPOS>BOND
    1     1     2    1
    2     1     3    2
    3     1     4    1
    4     4     5    1
    5     4     6    1
    6     4     7    1
    7     7     8    1
    8     7     9    1
    9     7    10    1
   10    10    11    1
   11    10    12    1
   12    10    13    1
   13    13    14    1
   14    13    15    1
   15    13    16    1
   16    16    17    1
   17    16    18    1
   18    16    19    1
   19    19    20    1
   20    19    21    1
   21    19    22    1
@<TRIPOS>SUBSTRUCTURE
       1 MOL1            1 RESIDUE      1      MOL     
@<SCITEGIC>MOL_PROPERTY
VConf Rank
SciTegic.value.IntegerValue
309

@<SCITEGIC>MOL_PROPERTY
Conf_Id
SciTegic.value.IntegerValue
43

@<SCITEGIC>MOL_PROPERTY
Delta U+W
SciTegic.value.DoubleValue
-0.129

@<SCITEGIC>MOL_PROPERTY
U+W
SciTegic.value.DoubleValue
-53.289

@<SCITEGIC>MOL_PROPERTY
Grad RMS
SciTegic.value.DoubleValue
0.000000

@<SCITEGIC>MOL_PROPERTY
U
SciTegic.value.DoubleValue
7.937

@<SCITEGIC>MOL_PROPERTY
W
SciTegic.value.DoubleValue
-61.225

@<SCITEGIC>MOL_PROPERTY
W(PB)
SciTegic.value.DoubleValue
-63.523

@<SCITEGIC>MOL_PROPERTY
W(SA)
SciTegic.value.DoubleValue
2.297

@<SCITEGIC>MOL_PROPERTY
Valence
SciTegic.value.DoubleValue
7.358

@<SCITEGIC>MOL_PROPERTY
Coulomb
SciTegic.value.DoubleValue
-0.022

@<SCITEGIC>MOL_PROPERTY
VdW
SciTegic.value.DoubleValue
0.601

@<SCITEGIC>MOL_PROPERTY
VdW6
SciTegic.value.DoubleValue
-7.363

@<SCITEGIC>MOL_PROPERTY
VdW12
SciTegic.value.DoubleValue
7.964

@<SCITEGIC>MOL_PROPERTY
Bond
SciTegic.value.DoubleValue
0.121

@<SCITEGIC>MOL_PROPERTY
Angle
SciTegic.value.DoubleValue
2.425

@<SCITEGIC>MOL_PROPERTY
Pdih
SciTegic.value.DoubleValue
4.811

@<SCITEGIC>MOL_PROPERTY
Idih
SciTegic.value.DoubleValue
0.000

@<SCITEGIC>MOL_PROPERTY
Tether
SciTegic.value.DoubleValue
0.000

@<TRIPOS>MOLECULE
guest-s21_confgen4.mol2 : confsearch ligand conformer 310
          22          21           1
SMALL
USER_CHARGES
 
@<TRIPOS>ATOM
       1    C1      21.107143   19.528431   25.485010 C.2        1 MOL1         0.6145
       2    O1      22.042313   18.782985   25.701042 O.co2      1 MOL1        -0.6735
       3    O2      20.084213   19.531383   26.141057 O.co2      1 MOL1        -0.6735
       4    C2      21.233954   20.527193   24.338047 C.3        1 MOL1        -0.1985
       5    H1      22.224498   20.990815   24.414967 H          1 MOL1         0.0740
       6    H2      20.497191   21.326026   24.486210 H          1 MOL1         0.0740
       7    C3      21.064911   19.896940   22.931205 C.3        1 MOL1        -0.1882
       8    H3      21.306987   20.651955   22.171012 H          1 MOL1         0.0742
       9    H4      21.790388   19.080673   22.808546 H          1 MOL1         0.0742
      10    C4      19.634381   19.367071   22.685417 C.3        1 MOL1        -0.1880
      11    H5      18.912120   20.183574   22.822077 H          1 MOL1         0.0742
      12    H6      19.391004   18.598491   23.432050 H          1 MOL1         0.0742
      13    C5      19.480278   18.772974   21.268816 C.3        1 MOL1        -0.1880
      14    H7      19.720359   19.540512   20.520281 H          1 MOL1         0.0742
      15    H8      20.202823   17.956530   21.132956 H          1 MOL1         0.0742
      16    C6      18.052131   18.242910   21.022893 C.3        1 MOL1        -0.1856
      17    H9      17.326614   19.057336   21.156297 H          1 MOL1         0.0742
      18    H10     17.809087   17.473488   21.768830 H          1 MOL1         0.0742
      19    C7      17.902206   17.649865   19.607556 C.3        1 MOL1        -0.2871
      20    H11     18.109140   18.407434   18.840312 H          1 MOL1         0.0754
      21    H12     16.881422   17.278005   19.450056 H          1 MOL1         0.0754
      22    H13     18.595223   16.811645   19.457506 H          1 MOL1         0.0754
@<TRIPOS>BOND
    1     1     2    1
    2     1     3    2
    3     1     4    1
    4     4     5    1
    5     4     6    1
    6     4     7    1
    7     7     8    1
    8     7     9    1
    9     7    10    1
   10    10    11    1
   11    10    12    1
   12    10    13    1
   13    13    14    1
   14    13    15    1
   15    13    16    1
   16    16    17    1
   17    16    18    1
   18    16    19    1
   19    19    20    1
   20    19    21    1
   21    19    22    1
@<TRIPOS>SUBSTRUCTURE
       1 MOL1            1 RESIDUE      1      MOL     
@<SCITEGIC>MOL_PROPERTY
VConf Rank
SciTegic.value.IntegerValue
310

@<SCITEGIC>MOL_PROPERTY
Conf_Id
SciTegic.value.IntegerValue
44

@<SCITEGIC>MOL_PROPERTY
Delta U+W
SciTegic.value.DoubleValue
-0.155

@<SCITEGIC>MOL_PROPERTY
U+W
SciTegic.value.DoubleValue
-53.314

@<SCITEGIC>MOL_PROPERTY
Grad RMS
SciTegic.value.DoubleValue
0.000000

@<SCITEGIC>MOL_PROPERTY
U
SciTegic.value.DoubleValue
7.937

@<SCITEGIC>MOL_PROPERTY
W
SciTegic.value.DoubleValue
-61.252

@<SCITEGIC>MOL_PROPERTY
W(PB)
SciTegic.value.DoubleValue
-63.556

@<SCITEGIC>MOL_PROPERTY
W(SA)
SciTegic.value.DoubleValue
2.304

@<SCITEGIC>MOL_PROPERTY
Valence
SciTegic.value.DoubleValue
7.358

@<SCITEGIC>MOL_PROPERTY
Coulomb
SciTegic.value.DoubleValue
-0.021

@<SCITEGIC>MOL_PROPERTY
VdW
SciTegic.value.DoubleValue
0.600

@<SCITEGIC>MOL_PROPERTY
VdW6
SciTegic.value.DoubleValue
-7.363

@<SCITEGIC>MOL_PROPERTY
VdW12
SciTegic.value.DoubleValue
7.964

@<SCITEGIC>MOL_PROPERTY
Bond
SciTegic.value.DoubleValue
0.121

@<SCITEGIC>MOL_PROPERTY
Angle
SciTegic.value.DoubleValue
2.425

@<SCITEGIC>MOL_PROPERTY
Pdih
SciTegic.value.DoubleValue
4.811

@<SCITEGIC>MOL_PROPERTY
Idih
SciTegic.value.DoubleValue
0.001

@<SCITEGIC>MOL_PROPERTY
Tether
SciTegic.value.DoubleValue
0.000

@<TRIPOS>MOLECULE
guest-s21_confgen4.mol2 : confsearch ligand conformer 311
          22          21           1
SMALL
USER_CHARGES
 
@<TRIPOS>ATOM
       1    C1      19.558584   22.313215   23.595592 C.2        1 MOL1         0.6145
       2    O1      18.915922   22.351187   24.626353 O.co2      1 MOL1        -0.6735
       3    O2      19.368394   23.061301   22.656943 O.co2      1 MOL1        -0.6735
       4    C2      20.677727   21.281592   23.483418 C.3        1 MOL1        -0.1985
       5    H1      21.250589   21.317821   24.417520 H          1 MOL1         0.0740
       6    H2      21.359210   21.589347   22.681073 H          1 MOL1         0.0740
       7    C3      20.180659   19.833150   23.237317 C.3        1 MOL1        -0.1882
       8    H3      21.036572   19.152305   23.326926 H          1 MOL1         0.0742
       9    H4      19.468605   19.553924   24.026248 H          1 MOL1         0.0742
      10    C4      19.519750   19.660067   21.848630 C.3        1 MOL1        -0.1880
      11    H5      20.246164   19.899075   21.059960 H          1 MOL1         0.0742
      12    H6      18.701875   20.386347   21.745722 H          1 MOL1         0.0742
      13    C5      18.944281   18.243543   21.611734 C.3        1 MOL1        -0.1880
      14    H7      18.218070   18.004872   22.400767 H          1 MOL1         0.0742
      15    H8      18.384544   18.249723   20.666452 H          1 MOL1         0.0742
      16    C6      20.024824   17.140548   21.546517 C.3        1 MOL1        -0.1856
      17    H9      20.544255   17.061655   22.510458 H          1 MOL1         0.0742
      18    H10     20.780981   17.406414   20.795029 H          1 MOL1         0.0742
      19    C7      19.412687   15.769867   21.194011 C.3        1 MOL1        -0.2871
      20    H11     18.671412   15.466405   21.944881 H          1 MOL1         0.0754
      21    H12     20.191391   14.997115   21.154796 H          1 MOL1         0.0754
      22    H13     18.916563   15.800680   20.215099 H          1 MOL1         0.0754
@<TRIPOS>BOND
    1     1     2    1
    2     1     3    2
    3     1     4    1
    4     4     5    1
    5     4     6    1
    6     4     7    1
    7     7     8    1
    8     7     9    1
    9     7    10    1
   10    10    11    1
   11    10    12    1
   12    10    13    1
   13    13    14    1
   14    13    15    1
   15    13    16    1
   16    16    17    1
   17    16    18    1
   18    16    19    1
   19    19    20    1
   20    19    21    1
   21    19    22    1
@<TRIPOS>SUBSTRUCTURE
       1 MOL1            1 RESIDUE      1      MOL     
@<SCITEGIC>MOL_PROPERTY
VConf Rank
SciTegic.value.IntegerValue
311

@<SCITEGIC>MOL_PROPERTY
Conf_Id
SciTegic.value.IntegerValue
53

@<SCITEGIC>MOL_PROPERTY
Delta U+W
SciTegic.value.DoubleValue
0.723

@<SCITEGIC>MOL_PROPERTY
U+W
SciTegic.value.DoubleValue
-52.436

@<SCITEGIC>MOL_PROPERTY
Grad RMS
SciTegic.value.DoubleValue
0.000000

@<SCITEGIC>MOL_PROPERTY
U
SciTegic.value.DoubleValue
8.587

@<SCITEGIC>MOL_PROPERTY
W
SciTegic.value.DoubleValue
-61.022

@<SCITEGIC>MOL_PROPERTY
W(PB)
SciTegic.value.DoubleValue
-63.285

@<SCITEGIC>MOL_PROPERTY
W(SA)
SciTegic.value.DoubleValue
2.263

@<SCITEGIC>MOL_PROPERTY
Valence
SciTegic.value.DoubleValue
7.933

@<SCITEGIC>MOL_PROPERTY
Coulomb
SciTegic.value.DoubleValue
-0.124

@<SCITEGIC>MOL_PROPERTY
VdW
SciTegic.value.DoubleValue
0.778

@<SCITEGIC>MOL_PROPERTY
VdW6
SciTegic.value.DoubleValue
-7.981

@<SCITEGIC>MOL_PROPERTY
VdW12
SciTegic.value.DoubleValue
8.759

@<SCITEGIC>MOL_PROPERTY
Bond
SciTegic.value.DoubleValue
0.160

@<SCITEGIC>MOL_PROPERTY
Angle
SciTegic.value.DoubleValue
2.698

@<SCITEGIC>MOL_PROPERTY
Pdih
SciTegic.value.DoubleValue
5.074

@<SCITEGIC>MOL_PROPERTY
Idih
SciTegic.value.DoubleValue
0.001

@<SCITEGIC>MOL_PROPERTY
Tether
SciTegic.value.DoubleValue
0.000

@<TRIPOS>MOLECULE
guest-s21_confgen4.mol2 : confsearch ligand conformer 312
          22          21           1
SMALL
USER_CHARGES
 
@<TRIPOS>ATOM
       1    C1      21.343104   16.125996   21.640705 C.2        1 MOL1         0.6145
       2    O1      21.464745   16.027863   20.435656 O.co2      1 MOL1        -0.6735
       3    O2      21.808141   15.328467   22.430813 O.co2      1 MOL1        -0.6735
       4    C2      20.584465   17.327473   22.192899 C.3        1 MOL1        -0.1985
       5    H1      20.101073   17.024593   23.129317 H          1 MOL1         0.0740
       6    H2      19.792761   17.576560   21.477434 H          1 MOL1         0.0740
       7    C3      21.498410   18.555400   22.433801 C.3        1 MOL1        -0.1882
       8    H3      22.357310   18.240754   23.042662 H          1 MOL1         0.0742
       9    H4      21.910346   18.893162   21.472822 H          1 MOL1         0.0742
      10    C4      20.800228   19.741605   23.145226 C.3        1 MOL1        -0.1880
      11    H5      21.555469   20.523985   23.301561 H          1 MOL1         0.0742
      12    H6      20.471936   19.439309   24.149117 H          1 MOL1         0.0742
      13    C5      19.618757   20.362179   22.357366 C.3        1 MOL1        -0.1880
      14    H7      19.622729   21.448329   22.522456 H          1 MOL1         0.0742
      15    H8      19.766651   20.216760   21.278504 H          1 MOL1         0.0742
      16    C6      18.238733   19.815680   22.790525 C.3        1 MOL1        -0.1856
      17    H9      18.081518   20.019807   23.858612 H          1 MOL1         0.0742
      18    H10     18.199379   18.726477   22.670303 H          1 MOL1         0.0742
      19    C7      17.096365   20.456231   21.976879 C.3        1 MOL1        -0.2871
      20    H11     17.082960   21.546094   22.108604 H          1 MOL1         0.0754
      21    H12     16.123632   20.063701   22.300521 H          1 MOL1         0.0754
      22    H13     17.209275   20.241441   20.906143 H          1 MOL1         0.0754
@<TRIPOS>BOND
    1     1     2    1
    2     1     3    2
    3     1     4    1
    4     4     5    1
    5     4     6    1
    6     4     7    1
    7     7     8    1
    8     7     9    1
    9     7    10    1
   10    10    11    1
   11    10    12    1
   12    10    13    1
   13    13    14    1
   14    13    15    1
   15    13    16    1
   16    16    17    1
   17    16    18    1
   18    16    19    1
   19    19    20    1
   20    19    21    1
   21    19    22    1
@<TRIPOS>SUBSTRUCTURE
       1 MOL1            1 RESIDUE      1      MOL     
@<SCITEGIC>MOL_PROPERTY
VConf Rank
SciTegic.value.IntegerValue
312

@<SCITEGIC>MOL_PROPERTY
Conf_Id
SciTegic.value.IntegerValue
5

@<SCITEGIC>MOL_PROPERTY
Delta U+W
SciTegic.value.DoubleValue
2.167

@<SCITEGIC>MOL_PROPERTY
U+W
SciTegic.value.DoubleValue
-50.993

@<SCITEGIC>MOL_PROPERTY
Grad RMS
SciTegic.value.DoubleValue
0.000000

@<SCITEGIC>MOL_PROPERTY
U
SciTegic.value.DoubleValue
10.045

@<SCITEGIC>MOL_PROPERTY
W
SciTegic.value.DoubleValue
-61.037

@<SCITEGIC>MOL_PROPERTY
W(PB)
SciTegic.value.DoubleValue
-63.303

@<SCITEGIC>MOL_PROPERTY
W(SA)
SciTegic.value.DoubleValue
2.266

@<SCITEGIC>MOL_PROPERTY
Valence
SciTegic.value.DoubleValue
10.100

@<SCITEGIC>MOL_PROPERTY
Coulomb
SciTegic.value.DoubleValue
-0.883

@<SCITEGIC>MOL_PROPERTY
VdW
SciTegic.value.DoubleValue
0.828

@<SCITEGIC>MOL_PROPERTY
VdW6
SciTegic.value.DoubleValue
-8.177

@<SCITEGIC>MOL_PROPERTY
VdW12
SciTegic.value.DoubleValue
9.005

@<SCITEGIC>MOL_PROPERTY
Bond
SciTegic.value.DoubleValue
0.182

@<SCITEGIC>MOL_PROPERTY
Angle
SciTegic.value.DoubleValue
2.988

@<SCITEGIC>MOL_PROPERTY
Pdih
SciTegic.value.DoubleValue
6.930

@<SCITEGIC>MOL_PROPERTY
Idih
SciTegic.value.DoubleValue
0.001

@<SCITEGIC>MOL_PROPERTY
Tether
SciTegic.value.DoubleValue
0.000

@<TRIPOS>MOLECULE
guest-s21_confgen4.mol2 : confsearch ligand conformer 313
          22          21           1
SMALL
USER_CHARGES
 
@<TRIPOS>ATOM
       1    C1      17.084090   17.459848   23.501101 C.2        1 MOL1         0.6145
       2    O1      17.388131   16.550112   24.247096 O.co2      1 MOL1        -0.6735
       3    O2      15.938927   17.718265   23.187404 O.co2      1 MOL1        -0.6735
       4    C2      18.202161   18.309607   22.907949 C.3        1 MOL1        -0.1985
       5    H1      19.000803   18.374588   23.655398 H          1 MOL1         0.0740
       6    H2      17.813423   19.322625   22.749971 H          1 MOL1         0.0740
       7    C3      18.753612   17.733469   21.579376 C.3        1 MOL1        -0.1882
       8    H3      19.210299   16.753021   21.772802 H          1 MOL1         0.0742
       9    H4      17.910854   17.550851   20.898323 H          1 MOL1         0.0742
      10    C4      19.775852   18.649929   20.861185 C.3        1 MOL1        -0.1880
      11    H5      19.298047   19.597001   20.575334 H          1 MOL1         0.0742
      12    H6      20.053678   18.159646   19.918115 H          1 MOL1         0.0742
      13    C5      21.073389   18.923015   21.663390 C.3        1 MOL1        -0.1880
      14    H7      21.281419   18.084225   22.341710 H          1 MOL1         0.0742
      15    H8      21.915906   18.962607   20.959407 H          1 MOL1         0.0742
      16    C6      21.040201   20.254974   22.447953 C.3        1 MOL1        -0.1856
      17    H9      20.193711   20.272026   23.144752 H          1 MOL1         0.0742
      18    H10     20.888866   21.089267   21.749206 H          1 MOL1         0.0742
      19    C7      22.347310   20.480735   23.233975 C.3        1 MOL1        -0.2871
      20    H11     22.509240   19.677451   23.964640 H          1 MOL1         0.0754
      21    H12     22.311227   21.432719   23.779371 H          1 MOL1         0.0754
      22    H13     23.212326   20.509596   22.558514 H          1 MOL1         0.0754
@<TRIPOS>BOND
    1     1     2    1
    2     1     3    2
    3     1     4    1
    4     4     5    1
    5     4     6    1
    6     4     7    1
    7     7     8    1
    8     7     9    1
    9     7    10    1
   10    10    11    1
   11    10    12    1
   12    10    13    1
   13    13    14    1
   14    13    15    1
   15    13    16    1
   16    16    17    1
   17    16    18    1
   18    16    19    1
   19    19    20    1
   20    19    21    1
   21    19    22    1
@<TRIPOS>SUBSTRUCTURE
       1 MOL1            1 RESIDUE      1      MOL     
@<SCITEGIC>MOL_PROPERTY
VConf Rank
SciTegic.value.IntegerValue
313

@<SCITEGIC>MOL_PROPERTY
Conf_Id
SciTegic.value.IntegerValue
6

@<SCITEGIC>MOL_PROPERTY
Delta U+W
SciTegic.value.DoubleValue
2.118

@<SCITEGIC>MOL_PROPERTY
U+W
SciTegic.value.DoubleValue
-51.042

@<SCITEGIC>MOL_PROPERTY
Grad RMS
SciTegic.value.DoubleValue
0.000000

@<SCITEGIC>MOL_PROPERTY
U
SciTegic.value.DoubleValue
10.045

@<SCITEGIC>MOL_PROPERTY
W
SciTegic.value.DoubleValue
-61.086

@<SCITEGIC>MOL_PROPERTY
W(PB)
SciTegic.value.DoubleValue
-63.356

@<SCITEGIC>MOL_PROPERTY
W(SA)
SciTegic.value.DoubleValue
2.270

@<SCITEGIC>MOL_PROPERTY
Valence
SciTegic.value.DoubleValue
10.100

@<SCITEGIC>MOL_PROPERTY
Coulomb
SciTegic.value.DoubleValue
-0.883

@<SCITEGIC>MOL_PROPERTY
VdW
SciTegic.value.DoubleValue
0.828

@<SCITEGIC>MOL_PROPERTY
VdW6
SciTegic.value.DoubleValue
-8.177

@<SCITEGIC>MOL_PROPERTY
VdW12
SciTegic.value.DoubleValue
9.004

@<SCITEGIC>MOL_PROPERTY
Bond
SciTegic.value.DoubleValue
0.182

@<SCITEGIC>MOL_PROPERTY
Angle
SciTegic.value.DoubleValue
2.988

@<SCITEGIC>MOL_PROPERTY
Pdih
SciTegic.value.DoubleValue
6.930

@<SCITEGIC>MOL_PROPERTY
Idih
SciTegic.value.DoubleValue
0.001

@<SCITEGIC>MOL_PROPERTY
Tether
SciTegic.value.DoubleValue
0.000

@<TRIPOS>MOLECULE
guest-s21_confgen4.mol2 : confsearch ligand conformer 314
          22          21           1
SMALL
USER_CHARGES
 
@<TRIPOS>ATOM
       1    C1      19.215503   16.351570   23.121500 C.2        1 MOL1         0.6145
       2    O1      18.022606   16.226089   23.318335 O.co2      1 MOL1        -0.6735
       3    O2      20.053491   16.248721   23.995717 O.co2      1 MOL1        -0.6735
       4    C2      19.693976   16.580351   21.688958 C.3        1 MOL1        -0.1985
       5    H1      19.405811   15.687774   21.121683 H          1 MOL1         0.0740
       6    H2      20.790074   16.616987   21.680626 H          1 MOL1         0.0740
       7    C3      19.107868   17.837126   20.986052 C.3        1 MOL1        -0.1882
       8    H3      19.214524   17.699476   19.901571 H          1 MOL1         0.0742
       9    H4      18.027779   17.903787   21.177195 H          1 MOL1         0.0742
      10    C4      19.797162   19.172266   21.361800 C.3        1 MOL1        -0.1880
      11    H5      19.409782   19.955972   20.696430 H          1 MOL1         0.0742
      12    H6      20.874784   19.101433   21.160450 H          1 MOL1         0.0742
      13    C5      19.570065   19.608351   22.826984 C.3        1 MOL1        -0.1880
      14    H7      18.496415   19.579989   23.058320 H          1 MOL1         0.0742
      15    H8      20.064127   18.903006   23.507023 H          1 MOL1         0.0742
      16    C6      20.118849   21.026339   23.091733 C.3        1 MOL1        -0.1856
      17    H9      19.626297   21.746015   22.423292 H          1 MOL1         0.0742
      18    H10     21.192331   21.056752   22.859089 H          1 MOL1         0.0742
      19    C7      19.899498   21.455744   24.556286 C.3        1 MOL1        -0.2871
      20    H11     18.830630   21.464106   24.806927 H          1 MOL1         0.0754
      21    H12     20.296081   22.464927   24.727447 H          1 MOL1         0.0754
      22    H13     20.407832   20.769748   25.246582 H          1 MOL1         0.0754
@<TRIPOS>BOND
    1     1     2    1
    2     1     3    2
    3     1     4    1
    4     4     5    1
    5     4     6    1
    6     4     7    1
    7     7     8    1
    8     7     9    1
    9     7    10    1
   10    10    11    1
   11    10    12    1
   12    10    13    1
   13    13    14    1
   14    13    15    1
   15    13    16    1
   16    16    17    1
   17    16    18    1
   18    16    19    1
   19    19    20    1
   20    19    21    1
   21    19    22    1
@<TRIPOS>SUBSTRUCTURE
       1 MOL1            1 RESIDUE      1      MOL     
@<SCITEGIC>MOL_PROPERTY
VConf Rank
SciTegic.value.IntegerValue
314

@<SCITEGIC>MOL_PROPERTY
Conf_Id
SciTegic.value.IntegerValue
8

@<SCITEGIC>MOL_PROPERTY
Delta U+W
SciTegic.value.DoubleValue
1.886

@<SCITEGIC>MOL_PROPERTY
U+W
SciTegic.value.DoubleValue
-51.274

@<SCITEGIC>MOL_PROPERTY
Grad RMS
SciTegic.value.DoubleValue
0.000000

@<SCITEGIC>MOL_PROPERTY
U
SciTegic.value.DoubleValue
11.237

@<SCITEGIC>MOL_PROPERTY
W
SciTegic.value.DoubleValue
-62.510

@<SCITEGIC>MOL_PROPERTY
W(PB)
SciTegic.value.DoubleValue
-64.777

@<SCITEGIC>MOL_PROPERTY
W(SA)
SciTegic.value.DoubleValue
2.267

@<SCITEGIC>MOL_PROPERTY
Valence
SciTegic.value.DoubleValue
9.029

@<SCITEGIC>MOL_PROPERTY
Coulomb
SciTegic.value.DoubleValue
1.667

@<SCITEGIC>MOL_PROPERTY
VdW
SciTegic.value.DoubleValue
0.540

@<SCITEGIC>MOL_PROPERTY
VdW6
SciTegic.value.DoubleValue
-8.825

@<SCITEGIC>MOL_PROPERTY
VdW12
SciTegic.value.DoubleValue
9.365

@<SCITEGIC>MOL_PROPERTY
Bond
SciTegic.value.DoubleValue
0.186

@<SCITEGIC>MOL_PROPERTY
Angle
SciTegic.value.DoubleValue
3.195

@<SCITEGIC>MOL_PROPERTY
Pdih
SciTegic.value.DoubleValue
5.642

@<SCITEGIC>MOL_PROPERTY
Idih
SciTegic.value.DoubleValue
0.007

@<SCITEGIC>MOL_PROPERTY
Tether
SciTegic.value.DoubleValue
0.000

@<TRIPOS>MOLECULE
guest-s21_confgen4.mol2 : confsearch ligand conformer 315
          22          21           1
SMALL
USER_CHARGES
 
@<TRIPOS>ATOM
       1    C1      19.274388   22.003175   22.606700 C.2        1 MOL1         0.6145
       2    O1      19.891535   22.022958   23.653362 O.co2      1 MOL1        -0.6735
       3    O2      18.219112   22.582088   22.437706 O.co2      1 MOL1        -0.6735
       4    C2      19.869638   21.235099   21.429883 C.3        1 MOL1        -0.1985
       5    H1      20.921318   21.017867   21.647802 H          1 MOL1         0.0740
       6    H2      19.866327   21.909896   20.565960 H          1 MOL1         0.0740
       7    C3      19.102659   19.933925   21.066791 C.3        1 MOL1        -0.1882
       8    H3      18.076630   20.200811   20.778068 H          1 MOL1         0.0742
       9    H4      19.563162   19.479837   20.179056 H          1 MOL1         0.0742
      10    C4      19.041206   18.883125   22.202914 C.3        1 MOL1        -0.1880
      11    H5      18.400388   18.058369   21.866576 H          1 MOL1         0.0742
      12    H6      18.549684   19.317763   23.084060 H          1 MOL1         0.0742
      13    C5      20.429578   18.327420   22.604235 C.3        1 MOL1        -0.1880
      14    H7      20.932624   17.909519   21.721741 H          1 MOL1         0.0742
      15    H8      21.059397   19.151375   22.963899 H          1 MOL1         0.0742
      16    C6      20.363950   17.256955   23.718595 C.3        1 MOL1        -0.1856
      17    H9      19.847301   17.667679   24.597092 H          1 MOL1         0.0742
      18    H10     21.387750   17.023965   24.042208 H          1 MOL1         0.0742
      19    C7      19.675964   15.947886   23.273818 C.3        1 MOL1        -0.2871
      20    H11     18.612689   16.106623   23.055647 H          1 MOL1         0.0754
      21    H12     19.742059   15.191687   24.066718 H          1 MOL1         0.0754
      22    H13     20.155143   15.537807   22.375308 H          1 MOL1         0.0754
@<TRIPOS>BOND
    1     1     2    1
    2     1     3    2
    3     1     4    1
    4     4     5    1
    5     4     6    1
    6     4     7    1
    7     7     8    1
    8     7     9    1
    9     7    10    1
   10    10    11    1
   11    10    12    1
   12    10    13    1
   13    13    14    1
   14    13    15    1
   15    13    16    1
   16    16    17    1
   17    16    18    1
   18    16    19    1
   19    19    20    1
   20    19    21    1
   21    19    22    1
@<TRIPOS>SUBSTRUCTURE
       1 MOL1            1 RESIDUE      1      MOL     
@<SCITEGIC>MOL_PROPERTY
VConf Rank
SciTegic.value.IntegerValue
315

@<SCITEGIC>MOL_PROPERTY
Conf_Id
SciTegic.value.IntegerValue
93

@<SCITEGIC>MOL_PROPERTY
Delta U+W
SciTegic.value.DoubleValue
1.836

@<SCITEGIC>MOL_PROPERTY
U+W
SciTegic.value.DoubleValue
-51.323

@<SCITEGIC>MOL_PROPERTY
Grad RMS
SciTegic.value.DoubleValue
0.000000

@<SCITEGIC>MOL_PROPERTY
U
SciTegic.value.DoubleValue
10.427

@<SCITEGIC>MOL_PROPERTY
W
SciTegic.value.DoubleValue
-61.751

@<SCITEGIC>MOL_PROPERTY
W(PB)
SciTegic.value.DoubleValue
-63.980

@<SCITEGIC>MOL_PROPERTY
W(SA)
SciTegic.value.DoubleValue
2.230

@<SCITEGIC>MOL_PROPERTY
Valence
SciTegic.value.DoubleValue
8.446

@<SCITEGIC>MOL_PROPERTY
Coulomb
SciTegic.value.DoubleValue
1.306

@<SCITEGIC>MOL_PROPERTY
VdW
SciTegic.value.DoubleValue
0.676

@<SCITEGIC>MOL_PROPERTY
VdW6
SciTegic.value.DoubleValue
-8.928

@<SCITEGIC>MOL_PROPERTY
VdW12
SciTegic.value.DoubleValue
9.604

@<SCITEGIC>MOL_PROPERTY
Bond
SciTegic.value.DoubleValue
0.209

@<SCITEGIC>MOL_PROPERTY
Angle
SciTegic.value.DoubleValue
3.066

@<SCITEGIC>MOL_PROPERTY
Pdih
SciTegic.value.DoubleValue
5.170

@<SCITEGIC>MOL_PROPERTY
Idih
SciTegic.value.DoubleValue
0.001

@<SCITEGIC>MOL_PROPERTY
Tether
SciTegic.value.DoubleValue
0.000

@<TRIPOS>MOLECULE
guest-s21_confgen4.mol2 : confsearch ligand conformer 316
          22          21           1
SMALL
USER_CHARGES
 
@<TRIPOS>ATOM
       1    C1      20.179852   20.544559   19.746812 C.2        1 MOL1         0.6145
       2    O1      21.225719   20.553190   19.127625 O.co2      1 MOL1        -0.6735
       3    O2      19.656083   21.545323   20.195034 O.co2      1 MOL1        -0.6735
       4    C2      19.472585   19.206764   19.944907 C.3        1 MOL1        -0.1985
       5    H1      19.411898   18.722427   18.963348 H          1 MOL1         0.0740
       6    H2      18.440379   19.398030   20.259037 H          1 MOL1         0.0740
       7    C3      20.184143   18.253285   20.943762 C.3        1 MOL1        -0.1882
       8    H3      19.641072   17.299321   20.980616 H          1 MOL1         0.0742
       9    H4      21.185393   18.021922   20.554794 H          1 MOL1         0.0742
      10    C4      20.327090   18.814140   22.380334 C.3        1 MOL1        -0.1880
      11    H5      20.900328   19.751050   22.357467 H          1 MOL1         0.0742
      12    H6      20.922800   18.101171   22.964115 H          1 MOL1         0.0742
      13    C5      18.970034   19.052964   23.086596 C.3        1 MOL1        -0.1880
      14    H7      18.387346   19.785646   22.513372 H          1 MOL1         0.0742
      15    H8      18.385433   18.123082   23.094002 H          1 MOL1         0.0742
      16    C6      19.114934   19.585382   24.531424 C.3        1 MOL1        -0.1856
      17    H9      18.119524   19.862846   24.904719 H          1 MOL1         0.0742
      18    H10     19.712731   20.507342   24.528461 H          1 MOL1         0.0742
      19    C7      19.740128   18.561664   25.504020 C.3        1 MOL1        -0.2871
      20    H11     20.782810   18.343379   25.242264 H          1 MOL1         0.0754
      21    H12     19.177894   17.618827   25.496909 H          1 MOL1         0.0754
      22    H13     19.731003   18.952498   26.529721 H          1 MOL1         0.0754
@<TRIPOS>BOND
    1     1     2    1
    2     1     3    2
    3     1     4    1
    4     4     5    1
    5     4     6    1
    6     4     7    1
    7     7     8    1
    8     7     9    1
    9     7    10    1
   10    10    11    1
   11    10    12    1
   12    10    13    1
   13    13    14    1
   14    13    15    1
   15    13    16    1
   16    16    17    1
   17    16    18    1
   18    16    19    1
   19    19    20    1
   20    19    21    1
   21    19    22    1
@<TRIPOS>SUBSTRUCTURE
       1 MOL1            1 RESIDUE      1      MOL     
@<SCITEGIC>MOL_PROPERTY
VConf Rank
SciTegic.value.IntegerValue
316

@<SCITEGIC>MOL_PROPERTY
Conf_Id
SciTegic.value.IntegerValue
70

@<SCITEGIC>MOL_PROPERTY
Delta U+W
SciTegic.value.DoubleValue
1.803

@<SCITEGIC>MOL_PROPERTY
U+W
SciTegic.value.DoubleValue
-51.356

@<SCITEGIC>MOL_PROPERTY
Grad RMS
SciTegic.value.DoubleValue
0.000000

@<SCITEGIC>MOL_PROPERTY
U
SciTegic.value.DoubleValue
10.428

@<SCITEGIC>MOL_PROPERTY
W
SciTegic.value.DoubleValue
-61.784

@<SCITEGIC>MOL_PROPERTY
W(PB)
SciTegic.value.DoubleValue
-64.014

@<SCITEGIC>MOL_PROPERTY
W(SA)
SciTegic.value.DoubleValue
2.230

@<SCITEGIC>MOL_PROPERTY
Valence
SciTegic.value.DoubleValue
8.445

@<SCITEGIC>MOL_PROPERTY
Coulomb
SciTegic.value.DoubleValue
1.306

@<SCITEGIC>MOL_PROPERTY
VdW
SciTegic.value.DoubleValue
0.676

@<SCITEGIC>MOL_PROPERTY
VdW6
SciTegic.value.DoubleValue
-8.929

@<SCITEGIC>MOL_PROPERTY
VdW12
SciTegic.value.DoubleValue
9.605

@<SCITEGIC>MOL_PROPERTY
Bond
SciTegic.value.DoubleValue
0.209

@<SCITEGIC>MOL_PROPERTY
Angle
SciTegic.value.DoubleValue
3.066

@<SCITEGIC>MOL_PROPERTY
Pdih
SciTegic.value.DoubleValue
5.170

@<SCITEGIC>MOL_PROPERTY
Idih
SciTegic.value.DoubleValue
0.001

@<SCITEGIC>MOL_PROPERTY
Tether
SciTegic.value.DoubleValue
0.000

@<TRIPOS>MOLECULE
guest-s21_confgen4.mol2 : confsearch ligand conformer 317
          22          21           1
SMALL
USER_CHARGES
 
@<TRIPOS>ATOM
       1    C1      20.632497   21.969455   23.613723 C.2        1 MOL1         0.6145
       2    O1      20.705033   22.681960   22.631895 O.co2      1 MOL1        -0.6735
       3    O2      21.556576   21.786602   24.381526 O.co2      1 MOL1        -0.6735
       4    C2      19.300871   21.284528   23.908251 C.3        1 MOL1        -0.1985
       5    H1      18.510202   22.032007   23.773502 H          1 MOL1         0.0740
       6    H2      19.283920   20.991785   24.965064 H          1 MOL1         0.0740
       7    C3      19.011635   20.056349   23.006642 C.3        1 MOL1        -0.1882
       8    H3      17.986866   19.708981   23.194927 H          1 MOL1         0.0742
       9    H4      19.053032   20.369720   21.955112 H          1 MOL1         0.0742
      10    C4      19.999834   18.892248   23.257432 C.3        1 MOL1        -0.1880
      11    H5      20.006197   18.654357   24.329910 H          1 MOL1         0.0742
      12    H6      21.021287   19.208842   23.005032 H          1 MOL1         0.0742
      13    C5      19.649709   17.606695   22.471115 C.3        1 MOL1        -0.1880
      14    H7      20.322670   16.803276   22.800556 H          1 MOL1         0.0742
      15    H8      18.631536   17.283663   22.727705 H          1 MOL1         0.0742
      16    C6      19.774624   17.768866   20.939362 C.3        1 MOL1        -0.1856
      17    H9      20.776524   18.142677   20.686915 H          1 MOL1         0.0742
      18    H10     19.054044   18.514099   20.577765 H          1 MOL1         0.0742
      19    C7      19.526147   16.434651   20.207337 C.3        1 MOL1        -0.2871
      20    H11     20.255338   15.674492   20.516838 H          1 MOL1         0.0754
      21    H12     19.615263   16.567016   19.121244 H          1 MOL1         0.0754
      22    H13     18.519645   16.051531   20.420753 H          1 MOL1         0.0754
@<TRIPOS>BOND
    1     1     2    1
    2     1     3    2
    3     1     4    1
    4     4     5    1
    5     4     6    1
    6     4     7    1
    7     7     8    1
    8     7     9    1
    9     7    10    1
   10    10    11    1
   11    10    12    1
   12    10    13    1
   13    13    14    1
   14    13    15    1
   15    13    16    1
   16    16    17    1
   17    16    18    1
   18    16    19    1
   19    19    20    1
   20    19    21    1
   21    19    22    1
@<TRIPOS>SUBSTRUCTURE
       1 MOL1            1 RESIDUE      1      MOL     
@<SCITEGIC>MOL_PROPERTY
VConf Rank
SciTegic.value.IntegerValue
317

@<SCITEGIC>MOL_PROPERTY
Conf_Id
SciTegic.value.IntegerValue
85

@<SCITEGIC>MOL_PROPERTY
Delta U+W
SciTegic.value.DoubleValue
0.707

@<SCITEGIC>MOL_PROPERTY
U+W
SciTegic.value.DoubleValue
-52.452

@<SCITEGIC>MOL_PROPERTY
Grad RMS
SciTegic.value.DoubleValue
0.000000

@<SCITEGIC>MOL_PROPERTY
U
SciTegic.value.DoubleValue
8.925

@<SCITEGIC>MOL_PROPERTY
W
SciTegic.value.DoubleValue
-61.378

@<SCITEGIC>MOL_PROPERTY
W(PB)
SciTegic.value.DoubleValue
-63.661

@<SCITEGIC>MOL_PROPERTY
W(SA)
SciTegic.value.DoubleValue
2.283

@<SCITEGIC>MOL_PROPERTY
Valence
SciTegic.value.DoubleValue
7.881

@<SCITEGIC>MOL_PROPERTY
Coulomb
SciTegic.value.DoubleValue
0.349

@<SCITEGIC>MOL_PROPERTY
VdW
SciTegic.value.DoubleValue
0.695

@<SCITEGIC>MOL_PROPERTY
VdW6
SciTegic.value.DoubleValue
-8.049

@<SCITEGIC>MOL_PROPERTY
VdW12
SciTegic.value.DoubleValue
8.743

@<SCITEGIC>MOL_PROPERTY
Bond
SciTegic.value.DoubleValue
0.156

@<SCITEGIC>MOL_PROPERTY
Angle
SciTegic.value.DoubleValue
2.660

@<SCITEGIC>MOL_PROPERTY
Pdih
SciTegic.value.DoubleValue
5.064

@<SCITEGIC>MOL_PROPERTY
Idih
SciTegic.value.DoubleValue
0.001

@<SCITEGIC>MOL_PROPERTY
Tether
SciTegic.value.DoubleValue
0.000

@<TRIPOS>MOLECULE
guest-s21_confgen4.mol2 : confsearch ligand conformer 318
          22          21           1
SMALL
USER_CHARGES
 
@<TRIPOS>ATOM
       1    C1      17.678472   19.857512   24.705170 C.2        1 MOL1         0.6145
       2    O1      17.319136   18.942743   25.420023 O.co2      1 MOL1        -0.6735
       3    O2      18.031149   20.941365   25.126899 O.co2      1 MOL1        -0.6735
       4    C2      17.664747   19.643334   23.194099 C.3        1 MOL1        -0.1985
       5    H1      17.191788   20.523923   22.743694 H          1 MOL1         0.0740
       6    H2      17.019986   18.785681   22.967011 H          1 MOL1         0.0740
       7    C3      19.070119   19.436347   22.571384 C.3        1 MOL1        -0.1882
       8    H3      18.969251   19.450028   21.478889 H          1 MOL1         0.0742
       9    H4      19.718968   20.279458   22.846039 H          1 MOL1         0.0742
      10    C4      19.724151   18.104826   23.007704 C.3        1 MOL1        -0.1880
      11    H5      19.111661   17.264379   22.653861 H          1 MOL1         0.0742
      12    H6      19.722656   18.044550   24.104612 H          1 MOL1         0.0742
      13    C5      21.182571   17.921776   22.517776 C.3        1 MOL1        -0.1880
      14    H7      21.823635   18.706327   22.942565 H          1 MOL1         0.0742
      15    H8      21.553965   16.975560   22.934439 H          1 MOL1         0.0742
      16    C6      21.348437   17.867995   20.978459 C.3        1 MOL1        -0.1856
      17    H9      20.430275   17.488735   20.509042 H          1 MOL1         0.0742
      18    H10     22.137320   17.142782   20.735503 H          1 MOL1         0.0742
      19    C7      21.744159   19.227736   20.360771 C.3        1 MOL1        -0.2871
      20    H11     20.989639   19.998866   20.553027 H          1 MOL1         0.0754
      21    H12     21.860129   19.136029   19.273132 H          1 MOL1         0.0754
      22    H13     22.699506   19.579394   20.771546 H          1 MOL1         0.0754
@<TRIPOS>BOND
    1     1     2    1
    2     1     3    2
    3     1     4    1
    4     4     5    1
    5     4     6    1
    6     4     7    1
    7     7     8    1
    8     7     9    1
    9     7    10    1
   10    10    11    1
   11    10    12    1
   12    10    13    1
   13    13    14    1
   14    13    15    1
   15    13    16    1
   16    16    17    1
   17    16    18    1
   18    16    19    1
   19    19    20    1
   20    19    21    1
   21    19    22    1
@<TRIPOS>SUBSTRUCTURE
       1 MOL1            1 RESIDUE      1      MOL     
@<SCITEGIC>MOL_PROPERTY
VConf Rank
SciTegic.value.IntegerValue
318

@<SCITEGIC>MOL_PROPERTY
Conf_Id
SciTegic.value.IntegerValue
82

@<SCITEGIC>MOL_PROPERTY
Delta U+W
SciTegic.value.DoubleValue
3.438

@<SCITEGIC>MOL_PROPERTY
U+W
SciTegic.value.DoubleValue
-49.721

@<SCITEGIC>MOL_PROPERTY
Grad RMS
SciTegic.value.DoubleValue
0.000000

@<SCITEGIC>MOL_PROPERTY
U
SciTegic.value.DoubleValue
11.773

@<SCITEGIC>MOL_PROPERTY
W
SciTegic.value.DoubleValue
-61.495

@<SCITEGIC>MOL_PROPERTY
W(PB)
SciTegic.value.DoubleValue
-63.749

@<SCITEGIC>MOL_PROPERTY
W(SA)
SciTegic.value.DoubleValue
2.254

@<SCITEGIC>MOL_PROPERTY
Valence
SciTegic.value.DoubleValue
10.419

@<SCITEGIC>MOL_PROPERTY
Coulomb
SciTegic.value.DoubleValue
0.565

@<SCITEGIC>MOL_PROPERTY
VdW
SciTegic.value.DoubleValue
0.789

@<SCITEGIC>MOL_PROPERTY
VdW6
SciTegic.value.DoubleValue
-8.847

@<SCITEGIC>MOL_PROPERTY
VdW12
SciTegic.value.DoubleValue
9.636

@<SCITEGIC>MOL_PROPERTY
Bond
SciTegic.value.DoubleValue
0.200

@<SCITEGIC>MOL_PROPERTY
Angle
SciTegic.value.DoubleValue
3.187

@<SCITEGIC>MOL_PROPERTY
Pdih
SciTegic.value.DoubleValue
7.032

@<SCITEGIC>MOL_PROPERTY
Idih
SciTegic.value.DoubleValue
0.001

@<SCITEGIC>MOL_PROPERTY
Tether
SciTegic.value.DoubleValue
0.000

@<TRIPOS>MOLECULE
guest-s21_confgen4.mol2 : confsearch ligand conformer 319
          22          21           1
SMALL
USER_CHARGES
 
@<TRIPOS>ATOM
       1    C1      21.710898   18.395084   25.153934 C.2        1 MOL1         0.6145
       2    O1      22.659626   17.689683   24.872334 O.co2      1 MOL1        -0.6735
       3    O2      21.796606   19.393977   25.840815 O.co2      1 MOL1        -0.6735
       4    C2      20.334028   17.989797   24.634926 C.3        1 MOL1        -0.1985
       5    H1      19.569278   18.497596   25.235054 H          1 MOL1         0.0740
       6    H2      20.219261   16.914986   24.818235 H          1 MOL1         0.0740
       7    C3      20.114113   18.283309   23.127883 C.3        1 MOL1        -0.1882
       8    H3      20.913567   17.808015   22.542865 H          1 MOL1         0.0742
       9    H4      19.169322   17.818236   22.819688 H          1 MOL1         0.0742
      10    C4      20.063686   19.797335   22.817620 C.3        1 MOL1        -0.1880
      11    H5      20.961918   20.279584   23.226835 H          1 MOL1         0.0742
      12    H6      19.208938   20.248441   23.339739 H          1 MOL1         0.0742
      13    C5      19.981839   20.135010   21.307718 C.3        1 MOL1        -0.1880
      14    H7      20.009412   21.229117   21.212666 H          1 MOL1         0.0742
      15    H8      20.879228   19.768361   20.790814 H          1 MOL1         0.0742
      16    C6      18.705078   19.621966   20.595985 C.3        1 MOL1        -0.1856
      17    H9      18.394980   20.367485   19.850775 H          1 MOL1         0.0742
      18    H10     17.875285   19.542647   21.311780 H          1 MOL1         0.0742
      19    C7      18.913878   18.276424   19.865953 C.3        1 MOL1        -0.2871
      20    H11     19.692186   18.366606   19.097064 H          1 MOL1         0.0754
      21    H12     17.987000   17.961139   19.369656 H          1 MOL1         0.0754
      22    H13     19.211841   17.479084   20.556149 H          1 MOL1         0.0754
@<TRIPOS>BOND
    1     1     2    1
    2     1     3    2
    3     1     4    1
    4     4     5    1
    5     4     6    1
    6     4     7    1
    7     7     8    1
    8     7     9    1
    9     7    10    1
   10    10    11    1
   11    10    12    1
   12    10    13    1
   13    13    14    1
   14    13    15    1
   15    13    16    1
   16    16    17    1
   17    16    18    1
   18    16    19    1
   19    19    20    1
   20    19    21    1
   21    19    22    1
@<TRIPOS>SUBSTRUCTURE
       1 MOL1            1 RESIDUE      1      MOL     
@<SCITEGIC>MOL_PROPERTY
VConf Rank
SciTegic.value.IntegerValue
319

@<SCITEGIC>MOL_PROPERTY
Conf_Id
SciTegic.value.IntegerValue
94

@<SCITEGIC>MOL_PROPERTY
Delta U+W
SciTegic.value.DoubleValue
3.471

@<SCITEGIC>MOL_PROPERTY
U+W
SciTegic.value.DoubleValue
-49.688

@<SCITEGIC>MOL_PROPERTY
Grad RMS
SciTegic.value.DoubleValue
0.000000

@<SCITEGIC>MOL_PROPERTY
U
SciTegic.value.DoubleValue
11.773

@<SCITEGIC>MOL_PROPERTY
W
SciTegic.value.DoubleValue
-61.461

@<SCITEGIC>MOL_PROPERTY
W(PB)
SciTegic.value.DoubleValue
-63.710

@<SCITEGIC>MOL_PROPERTY
W(SA)
SciTegic.value.DoubleValue
2.248

@<SCITEGIC>MOL_PROPERTY
Valence
SciTegic.value.DoubleValue
10.419

@<SCITEGIC>MOL_PROPERTY
Coulomb
SciTegic.value.DoubleValue
0.566

@<SCITEGIC>MOL_PROPERTY
VdW
SciTegic.value.DoubleValue
0.789

@<SCITEGIC>MOL_PROPERTY
VdW6
SciTegic.value.DoubleValue
-8.847

@<SCITEGIC>MOL_PROPERTY
VdW12
SciTegic.value.DoubleValue
9.636

@<SCITEGIC>MOL_PROPERTY
Bond
SciTegic.value.DoubleValue
0.200

@<SCITEGIC>MOL_PROPERTY
Angle
SciTegic.value.DoubleValue
3.187

@<SCITEGIC>MOL_PROPERTY
Pdih
SciTegic.value.DoubleValue
7.032

@<SCITEGIC>MOL_PROPERTY
Idih
SciTegic.value.DoubleValue
0.001

@<SCITEGIC>MOL_PROPERTY
Tether
SciTegic.value.DoubleValue
0.000

@<TRIPOS>MOLECULE
guest-s21_confgen4.mol2 : confsearch ligand conformer 320
          22          21           1
SMALL
USER_CHARGES
 
@<TRIPOS>ATOM
       1    C1      23.095754   19.369131   22.830301 C.2        1 MOL1         0.6145
       2    O1      23.994772   18.551562   22.823419 O.co2      1 MOL1        -0.6735
       3    O2      23.122065   20.392215   23.485420 O.co2      1 MOL1        -0.6735
       4    C2      21.858883   19.085927   21.985388 C.3        1 MOL1        -0.1985
       5    H1      22.174205   18.529298   21.094901 H          1 MOL1         0.0740
       6    H2      21.460363   20.048098   21.644150 H          1 MOL1         0.0740
       7    C3      20.774153   18.290703   22.757031 C.3        1 MOL1        -0.1882
       8    H3      21.226427   17.372138   23.155512 H          1 MOL1         0.0742
       9    H4      20.444678   18.870158   23.629673 H          1 MOL1         0.0742
      10    C4      19.554394   17.902263   21.884268 C.3        1 MOL1        -0.1880
      11    H5      18.862878   17.300269   22.488323 H          1 MOL1         0.0742
      12    H6      19.893803   17.241796   21.074866 H          1 MOL1         0.0742
      13    C5      18.783090   19.094566   21.259230 C.3        1 MOL1        -0.1880
      14    H7      19.427130   19.601360   20.528735 H          1 MOL1         0.0742
      15    H8      17.935562   18.699368   20.682984 H          1 MOL1         0.0742
      16    C6      18.253269   20.139942   22.271359 C.3        1 MOL1        -0.1856
      17    H9      17.752118   20.943672   21.714785 H          1 MOL1         0.0742
      18    H10     19.091489   20.613348   22.799826 H          1 MOL1         0.0742
      19    C7      17.259002   19.549114   23.294178 C.3        1 MOL1        -0.2871
      20    H11     16.420014   19.055845   22.786498 H          1 MOL1         0.0754
      21    H12     16.849439   20.341456   23.933862 H          1 MOL1         0.0754
      22    H13     17.747675   18.814138   23.946071 H          1 MOL1         0.0754
@<TRIPOS>BOND
    1     1     2    1
    2     1     3    2
    3     1     4    1
    4     4     5    1
    5     4     6    1
    6     4     7    1
    7     7     8    1
    8     7     9    1
    9     7    10    1
   10    10    11    1
   11    10    12    1
   12    10    13    1
   13    13    14    1
   14    13    15    1
   15    13    16    1
   16    16    17    1
   17    16    18    1
   18    16    19    1
   19    19    20    1
   20    19    21    1
   21    19    22    1
@<TRIPOS>SUBSTRUCTURE
       1 MOL1            1 RESIDUE      1      MOL     
@<SCITEGIC>MOL_PROPERTY
VConf Rank
SciTegic.value.IntegerValue
320

@<SCITEGIC>MOL_PROPERTY
Conf_Id
SciTegic.value.IntegerValue
56

@<SCITEGIC>MOL_PROPERTY
Delta U+W
SciTegic.value.DoubleValue
0.853

@<SCITEGIC>MOL_PROPERTY
U+W
SciTegic.value.DoubleValue
-52.307

@<SCITEGIC>MOL_PROPERTY
Grad RMS
SciTegic.value.DoubleValue
0.000000

@<SCITEGIC>MOL_PROPERTY
U
SciTegic.value.DoubleValue
8.874

@<SCITEGIC>MOL_PROPERTY
W
SciTegic.value.DoubleValue
-61.181

@<SCITEGIC>MOL_PROPERTY
W(PB)
SciTegic.value.DoubleValue
-63.413

@<SCITEGIC>MOL_PROPERTY
W(SA)
SciTegic.value.DoubleValue
2.232

@<SCITEGIC>MOL_PROPERTY
Valence
SciTegic.value.DoubleValue
8.479

@<SCITEGIC>MOL_PROPERTY
Coulomb
SciTegic.value.DoubleValue
-0.357

@<SCITEGIC>MOL_PROPERTY
VdW
SciTegic.value.DoubleValue
0.753

@<SCITEGIC>MOL_PROPERTY
VdW6
SciTegic.value.DoubleValue
-9.081

@<SCITEGIC>MOL_PROPERTY
VdW12
SciTegic.value.DoubleValue
9.833

@<SCITEGIC>MOL_PROPERTY
Bond
SciTegic.value.DoubleValue
0.221

@<SCITEGIC>MOL_PROPERTY
Angle
SciTegic.value.DoubleValue
3.208

@<SCITEGIC>MOL_PROPERTY
Pdih
SciTegic.value.DoubleValue
5.050

@<SCITEGIC>MOL_PROPERTY
Idih
SciTegic.value.DoubleValue
0.000

@<SCITEGIC>MOL_PROPERTY
Tether
SciTegic.value.DoubleValue
0.000

@<TRIPOS>MOLECULE
guest-s21_confgen4.mol2 : confsearch ligand conformer 321
          22          21           1
SMALL
USER_CHARGES
 
@<TRIPOS>ATOM
       1    C1      20.209638   15.198398   23.646553 C.2        1 MOL1         0.6145
       2    O1      19.241822   15.317842   24.372822 O.co2      1 MOL1        -0.6735
       3    O2      20.877361   14.184922   23.592398 O.co2      1 MOL1        -0.6735
       4    C2      20.631696   16.361282   22.747056 C.3        1 MOL1        -0.1985
       5    H1      20.631057   15.992874   21.714465 H          1 MOL1         0.0740
       6    H2      21.669548   16.609311   22.998673 H          1 MOL1         0.0740
       7    C3      19.748675   17.633279   22.850530 C.3        1 MOL1        -0.1882
       8    H3      18.709235   17.376509   22.603303 H          1 MOL1         0.0742
       9    H4      19.748809   17.993620   23.888626 H          1 MOL1         0.0742
      10    C4      20.244313   18.754382   21.911391 C.3        1 MOL1        -0.1880
      11    H5      20.243310   18.391811   20.874245 H          1 MOL1         0.0742
      12    H6      21.283635   19.009251   22.160352 H          1 MOL1         0.0742
      13    C5      19.364647   20.018724   22.015965 C.3        1 MOL1        -0.1880
      14    H7      18.325176   19.764335   21.767139 H          1 MOL1         0.0742
      15    H8      19.365370   20.381694   23.052969 H          1 MOL1         0.0742
      16    C6      19.859336   21.139447   21.077687 C.3        1 MOL1        -0.1856
      17    H9      19.858028   20.780661   20.039060 H          1 MOL1         0.0742
      18    H10     20.898328   21.398002   21.324912 H          1 MOL1         0.0742
      19    C7      18.978320   22.400239   21.185154 C.3        1 MOL1        -0.2871
      20    H11     17.938450   22.177182   20.912527 H          1 MOL1         0.0754
      21    H12     19.344053   23.186328   20.511808 H          1 MOL1         0.0754
      22    H13     18.986600   22.799183   22.207985 H          1 MOL1         0.0754
@<TRIPOS>BOND
    1     1     2    1
    2     1     3    2
    3     1     4    1
    4     4     5    1
    5     4     6    1
    6     4     7    1
    7     7     8    1
    8     7     9    1
    9     7    10    1
   10    10    11    1
   11    10    12    1
   12    10    13    1
   13    13    14    1
   14    13    15    1
   15    13    16    1
   16    16    17    1
   17    16    18    1
   18    16    19    1
   19    19    20    1
   20    19    21    1
   21    19    22    1
@<TRIPOS>SUBSTRUCTURE
       1 MOL1            1 RESIDUE      1      MOL     
@<SCITEGIC>MOL_PROPERTY
VConf Rank
SciTegic.value.IntegerValue
321

@<SCITEGIC>MOL_PROPERTY
Conf_Id
SciTegic.value.IntegerValue
0

@<SCITEGIC>MOL_PROPERTY
Delta U+W
SciTegic.value.DoubleValue
0.000

@<SCITEGIC>MOL_PROPERTY
U+W
SciTegic.value.DoubleValue
-53.159

@<SCITEGIC>MOL_PROPERTY
Grad RMS
SciTegic.value.DoubleValue
0.000000

@<SCITEGIC>MOL_PROPERTY
U
SciTegic.value.DoubleValue
6.763

@<SCITEGIC>MOL_PROPERTY
W
SciTegic.value.DoubleValue
-59.922

@<SCITEGIC>MOL_PROPERTY
W(PB)
SciTegic.value.DoubleValue
-62.256

@<SCITEGIC>MOL_PROPERTY
W(SA)
SciTegic.value.DoubleValue
2.334

@<SCITEGIC>MOL_PROPERTY
Valence
SciTegic.value.DoubleValue
7.600

@<SCITEGIC>MOL_PROPERTY
Coulomb
SciTegic.value.DoubleValue
-2.139

@<SCITEGIC>MOL_PROPERTY
VdW
SciTegic.value.DoubleValue
1.302

@<SCITEGIC>MOL_PROPERTY
VdW6
SciTegic.value.DoubleValue
-6.786

@<SCITEGIC>MOL_PROPERTY
VdW12
SciTegic.value.DoubleValue
8.088

@<SCITEGIC>MOL_PROPERTY
Bond
SciTegic.value.DoubleValue
0.134

@<SCITEGIC>MOL_PROPERTY
Angle
SciTegic.value.DoubleValue
2.720

@<SCITEGIC>MOL_PROPERTY
Pdih
SciTegic.value.DoubleValue
4.746

@<SCITEGIC>MOL_PROPERTY
Idih
SciTegic.value.DoubleValue
0.000

@<SCITEGIC>MOL_PROPERTY
Tether
SciTegic.value.DoubleValue
0.000

@<TRIPOS>MOLECULE
guest-s21_confgen4.mol2 : confsearch ligand conformer 322
          22          21           1
SMALL
USER_CHARGES
 
@<TRIPOS>ATOM
       1    C1      16.017504   17.604591   22.170007 C.2        1 MOL1         0.6145
       2    O1      15.309748   18.089125   23.030670 O.co2      1 MOL1        -0.6735
       3    O2      15.899548   16.465398   21.764104 O.co2      1 MOL1        -0.6735
       4    C2      17.129476   18.466531   21.582818 C.3        1 MOL1        -0.1985
       5    H1      16.787796   19.508603   21.580781 H          1 MOL1         0.0740
       6    H2      17.273643   18.170558   20.536741 H          1 MOL1         0.0740
       7    C3      18.462007   18.342456   22.361931 C.3        1 MOL1        -0.1882
       8    H3      18.297767   18.629679   23.409833 H          1 MOL1         0.0742
       9    H4      18.783600   17.291676   22.365824 H          1 MOL1         0.0742
      10    C4      19.571008   19.224072   21.748133 C.3        1 MOL1        -0.1880
      11    H5      19.245860   20.273567   21.744625 H          1 MOL1         0.0742
      12    H6      19.731791   18.935247   20.700325 H          1 MOL1         0.0742
      13    C5      20.898088   19.098314   22.526809 C.3        1 MOL1        -0.1880
      14    H7      20.737720   19.387045   23.574684 H          1 MOL1         0.0742
      15    H8      21.223574   18.048947   22.530560 H          1 MOL1         0.0742
      16    C6      22.006969   19.979151   21.913964 C.3        1 MOL1        -0.1856
      17    H9      21.685823   21.030022   21.910314 H          1 MOL1         0.0742
      18    H10     22.171672   19.691935   20.866178 H          1 MOL1         0.0742
      19    C7      23.330533   19.850765   22.694371 C.3        1 MOL1        -0.2871
      20    H11     23.691705   18.813985   22.687307 H          1 MOL1         0.0754
      21    H12     23.202130   20.162015   23.739380 H          1 MOL1         0.0754
      22    H13     24.107316   20.483300   22.245371 H          1 MOL1         0.0754
@<TRIPOS>BOND
    1     1     2    1
    2     1     3    2
    3     1     4    1
    4     4     5    1
    5     4     6    1
    6     4     7    1
    7     7     8    1
    8     7     9    1
    9     7    10    1
   10    10    11    1
   11    10    12    1
   12    10    13    1
   13    13    14    1
   14    13    15    1
   15    13    16    1
   16    16    17    1
   17    16    18    1
   18    16    19    1
   19    19    20    1
   20    19    21    1
   21    19    22    1
@<TRIPOS>SUBSTRUCTURE
       1 MOL1            1 RESIDUE      1      MOL     
@<SCITEGIC>MOL_PROPERTY
VConf Rank
SciTegic.value.IntegerValue
322

@<SCITEGIC>MOL_PROPERTY
Conf_Id
SciTegic.value.IntegerValue
10

@<SCITEGIC>MOL_PROPERTY
Delta U+W
SciTegic.value.DoubleValue
-1.291

@<SCITEGIC>MOL_PROPERTY
U+W
SciTegic.value.DoubleValue
-54.451

@<SCITEGIC>MOL_PROPERTY
Grad RMS
SciTegic.value.DoubleValue
0.000000

@<SCITEGIC>MOL_PROPERTY
U
SciTegic.value.DoubleValue
5.779

@<SCITEGIC>MOL_PROPERTY
W
SciTegic.value.DoubleValue
-60.230

@<SCITEGIC>MOL_PROPERTY
W(PB)
SciTegic.value.DoubleValue
-62.557

@<SCITEGIC>MOL_PROPERTY
W(SA)
SciTegic.value.DoubleValue
2.328

@<SCITEGIC>MOL_PROPERTY
Valence
SciTegic.value.DoubleValue
7.101

@<SCITEGIC>MOL_PROPERTY
Coulomb
SciTegic.value.DoubleValue
-2.079

@<SCITEGIC>MOL_PROPERTY
VdW
SciTegic.value.DoubleValue
0.757

@<SCITEGIC>MOL_PROPERTY
VdW6
SciTegic.value.DoubleValue
-6.496

@<SCITEGIC>MOL_PROPERTY
VdW12
SciTegic.value.DoubleValue
7.253

@<SCITEGIC>MOL_PROPERTY
Bond
SciTegic.value.DoubleValue
0.100

@<SCITEGIC>MOL_PROPERTY
Angle
SciTegic.value.DoubleValue
2.262

@<SCITEGIC>MOL_PROPERTY
Pdih
SciTegic.value.DoubleValue
4.738

@<SCITEGIC>MOL_PROPERTY
Idih
SciTegic.value.DoubleValue
0.001

@<SCITEGIC>MOL_PROPERTY
Tether
SciTegic.value.DoubleValue
0.000

@<TRIPOS>MOLECULE
guest-s21_confgen4.mol2 : confsearch ligand conformer 323
          22          21           1
SMALL
USER_CHARGES
 
@<TRIPOS>ATOM
       1    C1      22.622013   20.344187   24.590873 C.2        1 MOL1         0.6145
       2    O1      23.744381   20.206247   24.146222 O.co2      1 MOL1        -0.6735
       3    O2      22.309652   21.223937   25.368644 O.co2      1 MOL1        -0.6735
       4    C2      21.541019   19.372415   24.131177 C.3        1 MOL1        -0.1985
       5    H1      20.830876   19.237593   24.955899 H          1 MOL1         0.0740
       6    H2      22.013011   18.399718   23.947485 H          1 MOL1         0.0740
       7    C3      20.798919   19.854860   22.860475 C.3        1 MOL1        -0.1882
       8    H3      20.343614   20.835489   23.056883 H          1 MOL1         0.0742
       9    H4      21.525039   19.997062   22.048022 H          1 MOL1         0.0742
      10    C4      19.710266   18.854175   22.415717 C.3        1 MOL1        -0.1880
      11    H5      18.984788   18.715615   23.228944 H          1 MOL1         0.0742
      12    H6      20.174452   17.876977   22.229218 H          1 MOL1         0.0742
      13    C5      18.974985   19.338537   21.144885 C.3        1 MOL1        -0.1880
      14    H7      18.577085   20.346674   21.324523 H          1 MOL1         0.0742
      15    H8      19.689706   19.429391   20.315516 H          1 MOL1         0.0742
      16    C6      17.806642   18.417946   20.722046 C.3        1 MOL1        -0.1856
      17    H9      17.268251   18.891639   19.889588 H          1 MOL1         0.0742
      18    H10     17.086336   18.329711   21.547082 H          1 MOL1         0.0742
      19    C7      18.265617   17.011318   20.280517 C.3        1 MOL1        -0.2871
      20    H11     17.413189   16.429144   19.907206 H          1 MOL1         0.0754
      21    H12     18.708062   16.453687   21.115379 H          1 MOL1         0.0754
      22    H13     19.009519   17.075324   19.475752 H          1 MOL1         0.0754
@<TRIPOS>BOND
    1     1     2    1
    2     1     3    2
    3     1     4    1
    4     4     5    1
    5     4     6    1
    6     4     7    1
    7     7     8    1
    8     7     9    1
    9     7    10    1
   10    10    11    1
   11    10    12    1
   12    10    13    1
   13    13    14    1
   14    13    15    1
   15    13    16    1
   16    16    17    1
   17    16    18    1
   18    16    19    1
   19    19    20    1
   20    19    21    1
   21    19    22    1
@<TRIPOS>SUBSTRUCTURE
       1 MOL1            1 RESIDUE      1      MOL     
@<SCITEGIC>MOL_PROPERTY
VConf Rank
SciTegic.value.IntegerValue
323

@<SCITEGIC>MOL_PROPERTY
Conf_Id
SciTegic.value.IntegerValue
37

@<SCITEGIC>MOL_PROPERTY
Delta U+W
SciTegic.value.DoubleValue
-0.345

@<SCITEGIC>MOL_PROPERTY
U+W
SciTegic.value.DoubleValue
-53.504

@<SCITEGIC>MOL_PROPERTY
Grad RMS
SciTegic.value.DoubleValue
0.000000

@<SCITEGIC>MOL_PROPERTY
U
SciTegic.value.DoubleValue
6.751

@<SCITEGIC>MOL_PROPERTY
W
SciTegic.value.DoubleValue
-60.255

@<SCITEGIC>MOL_PROPERTY
W(PB)
SciTegic.value.DoubleValue
-62.592

@<SCITEGIC>MOL_PROPERTY
W(SA)
SciTegic.value.DoubleValue
2.336

@<SCITEGIC>MOL_PROPERTY
Valence
SciTegic.value.DoubleValue
7.602

@<SCITEGIC>MOL_PROPERTY
Coulomb
SciTegic.value.DoubleValue
-1.744

@<SCITEGIC>MOL_PROPERTY
VdW
SciTegic.value.DoubleValue
0.894

@<SCITEGIC>MOL_PROPERTY
VdW6
SciTegic.value.DoubleValue
-7.110

@<SCITEGIC>MOL_PROPERTY
VdW12
SciTegic.value.DoubleValue
8.004

@<SCITEGIC>MOL_PROPERTY
Bond
SciTegic.value.DoubleValue
0.131

@<SCITEGIC>MOL_PROPERTY
Angle
SciTegic.value.DoubleValue
2.489

@<SCITEGIC>MOL_PROPERTY
Pdih
SciTegic.value.DoubleValue
4.982

@<SCITEGIC>MOL_PROPERTY
Idih
SciTegic.value.DoubleValue
0.001

@<SCITEGIC>MOL_PROPERTY
Tether
SciTegic.value.DoubleValue
0.000

@<TRIPOS>MOLECULE
guest-s21_confgen4.mol2 : confsearch ligand conformer 324
          22          21           1
SMALL
USER_CHARGES
 
@<TRIPOS>ATOM
       1    C1      20.610715   17.828405   25.830436 C.2        1 MOL1         0.6145
       2    O1      19.907022   16.906971   26.194068 O.co2      1 MOL1        -0.6735
       3    O2      21.119117   18.627879   26.591242 O.co2      1 MOL1        -0.6735
       4    C2      20.851404   18.003965   24.335290 C.3        1 MOL1        -0.1985
       5    H1      20.853998   17.010166   23.871593 H          1 MOL1         0.0740
       6    H2      21.853534   18.427970   24.198908 H          1 MOL1         0.0740
       7    C3      19.792093   18.907382   23.657166 C.3        1 MOL1        -0.1882
       8    H3      18.793574   18.475934   23.813245 H          1 MOL1         0.0742
       9    H4      19.792955   19.893604   24.141806 H          1 MOL1         0.0742
      10    C4      20.057993   19.069381   22.144750 C.3        1 MOL1        -0.1880
      11    H5      20.062224   18.078556   21.672082 H          1 MOL1         0.0742
      12    H6      21.055777   19.502866   21.991868 H          1 MOL1         0.0742
      13    C5      18.995702   19.968813   21.471827 C.3        1 MOL1        -0.1880
      14    H7      18.002286   19.512084   21.578880 H          1 MOL1         0.0742
      15    H8      18.954590   20.930632   22.001119 H          1 MOL1         0.0742
      16    C6      19.280212   20.243139   19.976798 C.3        1 MOL1        -0.1856
      17    H9      20.270592   20.706007   19.866303 H          1 MOL1         0.0742
      18    H10     18.551425   20.978305   19.608509 H          1 MOL1         0.0742
      19    C7      19.197263   18.977358   19.096385 C.3        1 MOL1        -0.2871
      20    H11     18.225499   18.480265   19.213474 H          1 MOL1         0.0754
      21    H12     19.985346   18.258435   19.352858 H          1 MOL1         0.0754
      22    H13     19.317905   19.238230   18.036993 H          1 MOL1         0.0754
@<TRIPOS>BOND
    1     1     2    1
    2     1     3    2
    3     1     4    1
    4     4     5    1
    5     4     6    1
    6     4     7    1
    7     7     8    1
    8     7     9    1
    9     7    10    1
   10    10    11    1
   11    10    12    1
   12    10    13    1
   13    13    14    1
   14    13    15    1
   15    13    16    1
   16    16    17    1
   17    16    18    1
   18    16    19    1
   19    19    20    1
   20    19    21    1
   21    19    22    1
@<TRIPOS>SUBSTRUCTURE
       1 MOL1            1 RESIDUE      1      MOL     
@<SCITEGIC>MOL_PROPERTY
VConf Rank
SciTegic.value.IntegerValue
324

@<SCITEGIC>MOL_PROPERTY
Conf_Id
SciTegic.value.IntegerValue
38

@<SCITEGIC>MOL_PROPERTY
Delta U+W
SciTegic.value.DoubleValue
-0.439

@<SCITEGIC>MOL_PROPERTY
U+W
SciTegic.value.DoubleValue
-53.598

@<SCITEGIC>MOL_PROPERTY
Grad RMS
SciTegic.value.DoubleValue
0.000000

@<SCITEGIC>MOL_PROPERTY
U
SciTegic.value.DoubleValue
6.751

@<SCITEGIC>MOL_PROPERTY
W
SciTegic.value.DoubleValue
-60.350

@<SCITEGIC>MOL_PROPERTY
W(PB)
SciTegic.value.DoubleValue
-62.659

@<SCITEGIC>MOL_PROPERTY
W(SA)
SciTegic.value.DoubleValue
2.309

@<SCITEGIC>MOL_PROPERTY
Valence
SciTegic.value.DoubleValue
7.602

@<SCITEGIC>MOL_PROPERTY
Coulomb
SciTegic.value.DoubleValue
-1.744

@<SCITEGIC>MOL_PROPERTY
VdW
SciTegic.value.DoubleValue
0.893

@<SCITEGIC>MOL_PROPERTY
VdW6
SciTegic.value.DoubleValue
-7.110

@<SCITEGIC>MOL_PROPERTY
VdW12
SciTegic.value.DoubleValue
8.004

@<SCITEGIC>MOL_PROPERTY
Bond
SciTegic.value.DoubleValue
0.131

@<SCITEGIC>MOL_PROPERTY
Angle
SciTegic.value.DoubleValue
2.489

@<SCITEGIC>MOL_PROPERTY
Pdih
SciTegic.value.DoubleValue
4.981

@<SCITEGIC>MOL_PROPERTY
Idih
SciTegic.value.DoubleValue
0.001

@<SCITEGIC>MOL_PROPERTY
Tether
SciTegic.value.DoubleValue
0.000

@<TRIPOS>MOLECULE
guest-s21_confgen4.mol2 : confsearch ligand conformer 325
          22          21           1
SMALL
USER_CHARGES
 
@<TRIPOS>ATOM
       1    C1      17.284163   21.485501   21.036786 C.2        1 MOL1         0.6145
       2    O1      17.317537   22.021715   19.946867 O.co2      1 MOL1        -0.6735
       3    O2      16.660413   21.923522   21.983151 O.co2      1 MOL1        -0.6735
       4    C2      18.087438   20.204821   21.234012 C.3        1 MOL1        -0.1985
       5    H1      18.105969   19.664807   20.279832 H          1 MOL1         0.0740
       6    H2      17.544980   19.579418   21.951696 H          1 MOL1         0.0740
       7    C3      19.533967   20.474033   21.724610 C.3        1 MOL1        -0.1882
       8    H3      20.013188   21.180820   21.033056 H          1 MOL1         0.0742
       9    H4      19.503492   20.971439   22.703871 H          1 MOL1         0.0742
      10    C4      20.407361   19.199571   21.812090 C.3        1 MOL1        -0.1880
      11    H5      21.438247   19.508767   22.026568 H          1 MOL1         0.0742
      12    H6      20.428819   18.700338   20.833840 H          1 MOL1         0.0742
      13    C5      19.933380   18.202186   22.897717 C.3        1 MOL1        -0.1880
      14    H7      19.910262   18.702070   23.875615 H          1 MOL1         0.0742
      15    H8      18.903668   17.889796   22.682807 H          1 MOL1         0.0742
      16    C6      20.809214   16.930603   22.987751 C.3        1 MOL1        -0.1856
      17    H9      20.844280   16.433766   22.008355 H          1 MOL1         0.0742
      18    H10     20.330024   16.222209   23.677533 H          1 MOL1         0.0742
      19    C7      22.245538   17.207682   23.482578 C.3        1 MOL1        -0.2871
      20    H11     22.808464   17.814682   22.762795 H          1 MOL1         0.0754
      21    H12     22.791912   16.265639   23.620234 H          1 MOL1         0.0754
      22    H13     22.234642   17.735449   24.445110 H          1 MOL1         0.0754
@<TRIPOS>BOND
    1     1     2    1
    2     1     3    2
    3     1     4    1
    4     4     5    1
    5     4     6    1
    6     4     7    1
    7     7     8    1
    8     7     9    1
    9     7    10    1
   10    10    11    1
   11    10    12    1
   12    10    13    1
   13    13    14    1
   14    13    15    1
   15    13    16    1
   16    16    17    1
   17    16    18    1
   18    16    19    1
   19    19    20    1
   20    19    21    1
   21    19    22    1
@<TRIPOS>SUBSTRUCTURE
       1 MOL1            1 RESIDUE      1      MOL     
@<SCITEGIC>MOL_PROPERTY
VConf Rank
SciTegic.value.IntegerValue
325

@<SCITEGIC>MOL_PROPERTY
Conf_Id
SciTegic.value.IntegerValue
60

@<SCITEGIC>MOL_PROPERTY
Delta U+W
SciTegic.value.DoubleValue
0.386

@<SCITEGIC>MOL_PROPERTY
U+W
SciTegic.value.DoubleValue
-52.773

@<SCITEGIC>MOL_PROPERTY
Grad RMS
SciTegic.value.DoubleValue
0.000000

@<SCITEGIC>MOL_PROPERTY
U
SciTegic.value.DoubleValue
7.689

@<SCITEGIC>MOL_PROPERTY
W
SciTegic.value.DoubleValue
-60.463

@<SCITEGIC>MOL_PROPERTY
W(PB)
SciTegic.value.DoubleValue
-62.772

@<SCITEGIC>MOL_PROPERTY
W(SA)
SciTegic.value.DoubleValue
2.309

@<SCITEGIC>MOL_PROPERTY
Valence
SciTegic.value.DoubleValue
8.197

@<SCITEGIC>MOL_PROPERTY
Coulomb
SciTegic.value.DoubleValue
-1.561

@<SCITEGIC>MOL_PROPERTY
VdW
SciTegic.value.DoubleValue
1.053

@<SCITEGIC>MOL_PROPERTY
VdW6
SciTegic.value.DoubleValue
-7.737

@<SCITEGIC>MOL_PROPERTY
VdW12
SciTegic.value.DoubleValue
8.790

@<SCITEGIC>MOL_PROPERTY
Bond
SciTegic.value.DoubleValue
0.181

@<SCITEGIC>MOL_PROPERTY
Angle
SciTegic.value.DoubleValue
2.780

@<SCITEGIC>MOL_PROPERTY
Pdih
SciTegic.value.DoubleValue
5.235

@<SCITEGIC>MOL_PROPERTY
Idih
SciTegic.value.DoubleValue
0.001

@<SCITEGIC>MOL_PROPERTY
Tether
SciTegic.value.DoubleValue
0.000

@<TRIPOS>MOLECULE
guest-s21_confgen4.mol2 : confsearch ligand conformer 326
          22          21           1
SMALL
USER_CHARGES
 
@<TRIPOS>ATOM
       1    C1      18.179198   21.972388   23.714693 C.2        1 MOL1         0.6145
       2    O1      18.048309   21.830668   24.914408 O.co2      1 MOL1        -0.6735
       3    O2      17.553054   22.782892   23.060791 O.co2      1 MOL1        -0.6735
       4    C2      19.166922   21.068124   22.985999 C.3        1 MOL1        -0.1985
       5    H1      19.995846   20.860544   23.671754 H          1 MOL1         0.0740
       6    H2      19.578196   21.627934   22.137541 H          1 MOL1         0.0740
       7    C3      18.519531   19.747884   22.492577 C.3        1 MOL1        -0.1882
       8    H3      18.154839   19.172571   23.354731 H          1 MOL1         0.0742
       9    H4      17.635331   19.994925   21.888749 H          1 MOL1         0.0742
      10    C4      19.469052   18.870579   21.642010 C.3        1 MOL1        -0.1880
      11    H5      19.838156   19.451229   20.785694 H          1 MOL1         0.0742
      12    H6      18.883160   18.040945   21.226358 H          1 MOL1         0.0742
      13    C5      20.666176   18.303385   22.444008 C.3        1 MOL1        -0.1880
      14    H7      21.254747   19.132001   22.857601 H          1 MOL1         0.0742
      15    H8      20.296944   17.724340   23.301375 H          1 MOL1         0.0742
      16    C6      21.612400   17.422932   21.594551 C.3        1 MOL1        -0.1856
      17    H9      22.498060   17.177021   22.196531 H          1 MOL1         0.0742
      18    H10     21.974951   17.995018   20.729354 H          1 MOL1         0.0742
      19    C7      20.961080   16.108091   21.113274 C.3        1 MOL1        -0.2871
      20    H11     20.560215   15.535312   21.959652 H          1 MOL1         0.0754
      21    H12     21.700377   15.479548   20.600154 H          1 MOL1         0.0754
      22    H13     20.142911   16.299551   20.408031 H          1 MOL1         0.0754
@<TRIPOS>BOND
    1     1     2    1
    2     1     3    2
    3     1     4    1
    4     4     5    1
    5     4     6    1
    6     4     7    1
    7     7     8    1
    8     7     9    1
    9     7    10    1
   10    10    11    1
   11    10    12    1
   12    10    13    1
   13    13    14    1
   14    13    15    1
   15    13    16    1
   16    16    17    1
   17    16    18    1
   18    16    19    1
   19    19    20    1
   20    19    21    1
   21    19    22    1
@<TRIPOS>SUBSTRUCTURE
       1 MOL1            1 RESIDUE      1      MOL     
@<SCITEGIC>MOL_PROPERTY
VConf Rank
SciTegic.value.IntegerValue
326

@<SCITEGIC>MOL_PROPERTY
Conf_Id
SciTegic.value.IntegerValue
28

@<SCITEGIC>MOL_PROPERTY
Delta U+W
SciTegic.value.DoubleValue
0.351

@<SCITEGIC>MOL_PROPERTY
U+W
SciTegic.value.DoubleValue
-52.808

@<SCITEGIC>MOL_PROPERTY
Grad RMS
SciTegic.value.DoubleValue
0.000000

@<SCITEGIC>MOL_PROPERTY
U
SciTegic.value.DoubleValue
7.689

@<SCITEGIC>MOL_PROPERTY
W
SciTegic.value.DoubleValue
-60.498

@<SCITEGIC>MOL_PROPERTY
W(PB)
SciTegic.value.DoubleValue
-62.768

@<SCITEGIC>MOL_PROPERTY
W(SA)
SciTegic.value.DoubleValue
2.270

@<SCITEGIC>MOL_PROPERTY
Valence
SciTegic.value.DoubleValue
8.197

@<SCITEGIC>MOL_PROPERTY
Coulomb
SciTegic.value.DoubleValue
-1.561

@<SCITEGIC>MOL_PROPERTY
VdW
SciTegic.value.DoubleValue
1.053

@<SCITEGIC>MOL_PROPERTY
VdW6
SciTegic.value.DoubleValue
-7.737

@<SCITEGIC>MOL_PROPERTY
VdW12
SciTegic.value.DoubleValue
8.791

@<SCITEGIC>MOL_PROPERTY
Bond
SciTegic.value.DoubleValue
0.181

@<SCITEGIC>MOL_PROPERTY
Angle
SciTegic.value.DoubleValue
2.780

@<SCITEGIC>MOL_PROPERTY
Pdih
SciTegic.value.DoubleValue
5.235

@<SCITEGIC>MOL_PROPERTY
Idih
SciTegic.value.DoubleValue
0.001

@<SCITEGIC>MOL_PROPERTY
Tether
SciTegic.value.DoubleValue
0.000

@<TRIPOS>MOLECULE
guest-s21_confgen4.mol2 : confsearch ligand conformer 327
          22          21           1
SMALL
USER_CHARGES
 
@<TRIPOS>ATOM
       1    C1      22.717008   20.946061   23.633094 C.2        1 MOL1         0.6145
       2    O1      22.802142   21.023815   24.842713 O.co2      1 MOL1        -0.6735
       3    O2      23.673688   20.794597   22.899420 O.co2      1 MOL1        -0.6735
       4    C2      21.331086   21.022853   23.002503 C.3        1 MOL1        -0.1985
       5    H1      21.430422   21.495107   22.017740 H          1 MOL1         0.0740
       6    H2      20.712631   21.685911   23.619337 H          1 MOL1         0.0740
       7    C3      20.655535   19.636230   22.863963 C.3        1 MOL1        -0.1882
       8    H3      21.302066   18.985632   22.260483 H          1 MOL1         0.0742
       9    H4      20.571517   19.172965   23.856753 H          1 MOL1         0.0742
      10    C4      19.254766   19.743008   22.217817 C.3        1 MOL1        -0.1880
      11    H5      19.344509   20.157489   21.204337 H          1 MOL1         0.0742
      12    H6      18.649829   20.457086   22.793235 H          1 MOL1         0.0742
      13    C5      18.498044   18.394801   22.160639 C.3        1 MOL1        -0.1880
      14    H7      18.404517   17.981942   23.174410 H          1 MOL1         0.0742
      15    H8      17.475307   18.584563   21.807189 H          1 MOL1         0.0742
      16    C6      19.163601   17.353042   21.233243 C.3        1 MOL1        -0.1856
      17    H9      20.159484   17.089671   21.612996 H          1 MOL1         0.0742
      18    H10     19.305322   17.784385   20.232711 H          1 MOL1         0.0742
      19    C7      18.314435   16.070728   21.122330 C.3        1 MOL1        -0.2871
      20    H11     17.321700   16.290930   20.708393 H          1 MOL1         0.0754
      21    H12     18.179740   15.602971   22.106426 H          1 MOL1         0.0754
      22    H13     18.801548   15.340105   20.463558 H          1 MOL1         0.0754
@<TRIPOS>BOND
    1     1     2    1
    2     1     3    2
    3     1     4    1
    4     4     5    1
    5     4     6    1
    6     4     7    1
    7     7     8    1
    8     7     9    1
    9     7    10    1
   10    10    11    1
   11    10    12    1
   12    10    13    1
   13    13    14    1
   14    13    15    1
   15    13    16    1
   16    16    17    1
   17    16    18    1
   18    16    19    1
   19    19    20    1
   20    19    21    1
   21    19    22    1
@<TRIPOS>SUBSTRUCTURE
       1 MOL1            1 RESIDUE      1      MOL     
@<SCITEGIC>MOL_PROPERTY
VConf Rank
SciTegic.value.IntegerValue
327

@<SCITEGIC>MOL_PROPERTY
Conf_Id
SciTegic.value.IntegerValue
50

@<SCITEGIC>MOL_PROPERTY
Delta U+W
SciTegic.value.DoubleValue
-0.486

@<SCITEGIC>MOL_PROPERTY
U+W
SciTegic.value.DoubleValue
-53.646

@<SCITEGIC>MOL_PROPERTY
Grad RMS
SciTegic.value.DoubleValue
0.000000

@<SCITEGIC>MOL_PROPERTY
U
SciTegic.value.DoubleValue
7.026

@<SCITEGIC>MOL_PROPERTY
W
SciTegic.value.DoubleValue
-60.672

@<SCITEGIC>MOL_PROPERTY
W(PB)
SciTegic.value.DoubleValue
-62.964

@<SCITEGIC>MOL_PROPERTY
W(SA)
SciTegic.value.DoubleValue
2.292

@<SCITEGIC>MOL_PROPERTY
Valence
SciTegic.value.DoubleValue
7.637

@<SCITEGIC>MOL_PROPERTY
Coulomb
SciTegic.value.DoubleValue
-1.488

@<SCITEGIC>MOL_PROPERTY
VdW
SciTegic.value.DoubleValue
0.877

@<SCITEGIC>MOL_PROPERTY
VdW6
SciTegic.value.DoubleValue
-7.165

@<SCITEGIC>MOL_PROPERTY
VdW12
SciTegic.value.DoubleValue
8.043

@<SCITEGIC>MOL_PROPERTY
Bond
SciTegic.value.DoubleValue
0.134

@<SCITEGIC>MOL_PROPERTY
Angle
SciTegic.value.DoubleValue
2.513

@<SCITEGIC>MOL_PROPERTY
Pdih
SciTegic.value.DoubleValue
4.990

@<SCITEGIC>MOL_PROPERTY
Idih
SciTegic.value.DoubleValue
0.001

@<SCITEGIC>MOL_PROPERTY
Tether
SciTegic.value.DoubleValue
0.000

@<TRIPOS>MOLECULE
guest-s21_confgen4.mol2 : confsearch ligand conformer 328
          22          21           1
SMALL
USER_CHARGES
 
@<TRIPOS>ATOM
       1    C1      21.381913   17.282141   19.386950 C.2        1 MOL1         0.6145
       2    O1      21.576408   16.088510   19.504804 O.co2      1 MOL1        -0.6735
       3    O2      22.190841   18.051749   18.907582 O.co2      1 MOL1        -0.6735
       4    C2      20.057741   17.848623   19.886945 C.3        1 MOL1        -0.1985
       5    H1      19.284531   17.084359   19.743205 H          1 MOL1         0.0740
       6    H2      19.791375   18.702818   19.252871 H          1 MOL1         0.0740
       7    C3      20.111730   18.282748   21.372515 C.3        1 MOL1        -0.1882
       8    H3      20.388332   17.419072   21.992885 H          1 MOL1         0.0742
       9    H4      20.905064   19.031918   21.494305 H          1 MOL1         0.0742
      10    C4      18.758257   18.857029   21.851451 C.3        1 MOL1        -0.1880
      11    H5      17.967281   18.121662   21.650067 H          1 MOL1         0.0742
      12    H6      18.507077   19.751964   21.265799 H          1 MOL1         0.0742
      13    C5      18.733969   19.201563   23.359519 C.3        1 MOL1        -0.1880
      14    H7      17.707963   19.480209   23.636275 H          1 MOL1         0.0742
      15    H8      18.981215   18.305919   23.945713 H          1 MOL1         0.0742
      16    C6      19.687597   20.355339   23.743814 C.3        1 MOL1        -0.1856
      17    H9      19.475231   21.234946   23.120598 H          1 MOL1         0.0742
      18    H10     20.728698   20.067161   23.547803 H          1 MOL1         0.0742
      19    C7      19.544470   20.735283   25.231388 C.3        1 MOL1        -0.2871
      20    H11     19.778141   19.880095   25.879026 H          1 MOL1         0.0754
      21    H12     18.522176   21.066577   25.456149 H          1 MOL1         0.0754
      22    H13     20.229858   21.553071   25.489330 H          1 MOL1         0.0754
@<TRIPOS>BOND
    1     1     2    1
    2     1     3    2
    3     1     4    1
    4     4     5    1
    5     4     6    1
    6     4     7    1
    7     7     8    1
    8     7     9    1
    9     7    10    1
   10    10    11    1
   11    10    12    1
   12    10    13    1
   13    13    14    1
   14    13    15    1
   15    13    16    1
   16    16    17    1
   17    16    18    1
   18    16    19    1
   19    19    20    1
   20    19    21    1
   21    19    22    1
@<TRIPOS>SUBSTRUCTURE
       1 MOL1            1 RESIDUE      1      MOL     
@<SCITEGIC>MOL_PROPERTY
VConf Rank
SciTegic.value.IntegerValue
328

@<SCITEGIC>MOL_PROPERTY
Conf_Id
SciTegic.value.IntegerValue
51

@<SCITEGIC>MOL_PROPERTY
Delta U+W
SciTegic.value.DoubleValue
-0.517

@<SCITEGIC>MOL_PROPERTY
U+W
SciTegic.value.DoubleValue
-53.677

@<SCITEGIC>MOL_PROPERTY
Grad RMS
SciTegic.value.DoubleValue
0.000000

@<SCITEGIC>MOL_PROPERTY
U
SciTegic.value.DoubleValue
7.026

@<SCITEGIC>MOL_PROPERTY
W
SciTegic.value.DoubleValue
-60.703

@<SCITEGIC>MOL_PROPERTY
W(PB)
SciTegic.value.DoubleValue
-63.007

@<SCITEGIC>MOL_PROPERTY
W(SA)
SciTegic.value.DoubleValue
2.304

@<SCITEGIC>MOL_PROPERTY
Valence
SciTegic.value.DoubleValue
7.638

@<SCITEGIC>MOL_PROPERTY
Coulomb
SciTegic.value.DoubleValue
-1.488

@<SCITEGIC>MOL_PROPERTY
VdW
SciTegic.value.DoubleValue
0.877

@<SCITEGIC>MOL_PROPERTY
VdW6
SciTegic.value.DoubleValue
-7.165

@<SCITEGIC>MOL_PROPERTY
VdW12
SciTegic.value.DoubleValue
8.042

@<SCITEGIC>MOL_PROPERTY
Bond
SciTegic.value.DoubleValue
0.134

@<SCITEGIC>MOL_PROPERTY
Angle
SciTegic.value.DoubleValue
2.513

@<SCITEGIC>MOL_PROPERTY
Pdih
SciTegic.value.DoubleValue
4.990

@<SCITEGIC>MOL_PROPERTY
Idih
SciTegic.value.DoubleValue
0.001

@<SCITEGIC>MOL_PROPERTY
Tether
SciTegic.value.DoubleValue
0.000

@<TRIPOS>MOLECULE
guest-s21_confgen4.mol2 : confsearch ligand conformer 329
          22          21           1
SMALL
USER_CHARGES
 
@<TRIPOS>ATOM
       1    C1      20.861492   18.064913   19.099738 C.2        1 MOL1         0.6145
       2    O1      20.644658   16.902574   18.818928 O.co2      1 MOL1        -0.6735
       3    O2      20.334735   19.002758   18.534261 O.co2      1 MOL1        -0.6735
       4    C2      21.864852   18.360966   20.210933 C.3        1 MOL1        -0.1985
       5    H1      22.202032   19.399797   20.110703 H          1 MOL1         0.0740
       6    H2      22.741246   17.724918   20.039415 H          1 MOL1         0.0740
       7    C3      21.315594   18.111686   21.639627 C.3        1 MOL1        -0.1882
       8    H3      20.956185   17.075984   21.715779 H          1 MOL1         0.0742
       9    H4      22.137852   18.214807   22.360599 H          1 MOL1         0.0742
      10    C4      20.180240   19.088873   22.018656 C.3        1 MOL1        -0.1880
      11    H5      19.346282   18.979434   21.311588 H          1 MOL1         0.0742
      12    H6      20.540565   20.122802   21.928261 H          1 MOL1         0.0742
      13    C5      19.670382   18.843389   23.455052 C.3        1 MOL1        -0.1880
      14    H7      19.310209   17.809291   23.544631 H          1 MOL1         0.0742
      15    H8      20.501959   18.955090   24.164321 H          1 MOL1         0.0742
      16    C6      18.536003   19.818386   23.834013 C.3        1 MOL1        -0.1856
      17    H9      17.701516   19.708200   23.127620 H          1 MOL1         0.0742
      18    H10     18.893133   20.853944   23.747189 H          1 MOL1         0.0742
      19    C7      18.028989   19.569829   25.268765 C.3        1 MOL1        -0.2871
      20    H11     17.636422   18.550068   25.375446 H          1 MOL1         0.0754
      21    H12     17.223235   20.271309   25.521294 H          1 MOL1         0.0754
      22    H13     18.837054   19.704405   25.999733 H          1 MOL1         0.0754
@<TRIPOS>BOND
    1     1     2    1
    2     1     3    2
    3     1     4    1
    4     4     5    1
    5     4     6    1
    6     4     7    1
    7     7     8    1
    8     7     9    1
    9     7    10    1
   10    10    11    1
   11    10    12    1
   12    10    13    1
   13    13    14    1
   14    13    15    1
   15    13    16    1
   16    16    17    1
   17    16    18    1
   18    16    19    1
   19    19    20    1
   20    19    21    1
   21    19    22    1
@<TRIPOS>SUBSTRUCTURE
       1 MOL1            1 RESIDUE      1      MOL     
@<SCITEGIC>MOL_PROPERTY
VConf Rank
SciTegic.value.IntegerValue
329

@<SCITEGIC>MOL_PROPERTY
Conf_Id
SciTegic.value.IntegerValue
43

@<SCITEGIC>MOL_PROPERTY
Delta U+W
SciTegic.value.DoubleValue
-0.129

@<SCITEGIC>MOL_PROPERTY
U+W
SciTegic.value.DoubleValue
-53.289

@<SCITEGIC>MOL_PROPERTY
Grad RMS
SciTegic.value.DoubleValue
0.000000

@<SCITEGIC>MOL_PROPERTY
U
SciTegic.value.DoubleValue
7.937

@<SCITEGIC>MOL_PROPERTY
W
SciTegic.value.DoubleValue
-61.225

@<SCITEGIC>MOL_PROPERTY
W(PB)
SciTegic.value.DoubleValue
-63.523

@<SCITEGIC>MOL_PROPERTY
W(SA)
SciTegic.value.DoubleValue
2.297

@<SCITEGIC>MOL_PROPERTY
Valence
SciTegic.value.DoubleValue
7.358

@<SCITEGIC>MOL_PROPERTY
Coulomb
SciTegic.value.DoubleValue
-0.022

@<SCITEGIC>MOL_PROPERTY
VdW
SciTegic.value.DoubleValue
0.601

@<SCITEGIC>MOL_PROPERTY
VdW6
SciTegic.value.DoubleValue
-7.363

@<SCITEGIC>MOL_PROPERTY
VdW12
SciTegic.value.DoubleValue
7.964

@<SCITEGIC>MOL_PROPERTY
Bond
SciTegic.value.DoubleValue
0.121

@<SCITEGIC>MOL_PROPERTY
Angle
SciTegic.value.DoubleValue
2.425

@<SCITEGIC>MOL_PROPERTY
Pdih
SciTegic.value.DoubleValue
4.811

@<SCITEGIC>MOL_PROPERTY
Idih
SciTegic.value.DoubleValue
0.000

@<SCITEGIC>MOL_PROPERTY
Tether
SciTegic.value.DoubleValue
0.000

@<TRIPOS>MOLECULE
guest-s21_confgen4.mol2 : confsearch ligand conformer 330
          22          21           1
SMALL
USER_CHARGES
 
@<TRIPOS>ATOM
       1    C1      19.321147   19.324107   18.907913 C.2        1 MOL1         0.6145
       2    O1      18.582785   18.476665   18.445779 O.co2      1 MOL1        -0.6735
       3    O2      20.493701   19.430745   18.607020 O.co2      1 MOL1        -0.6735
       4    C2      18.737124   20.319246   19.906785 C.3        1 MOL1        -0.1985
       5    H1      17.780996   20.669204   19.500104 H          1 MOL1         0.0740
       6    H2      19.398682   21.192487   19.958688 H          1 MOL1         0.0740
       7    C3      18.513092   19.732076   21.324544 C.3        1 MOL1        -0.1882
       8    H3      17.967660   20.466616   21.932408 H          1 MOL1         0.0742
       9    H4      17.872025   18.842388   21.252857 H          1 MOL1         0.0742
      10    C4      19.837124   19.367442   22.032760 C.3        1 MOL1        -0.1880
      11    H5      20.479582   20.256806   22.090153 H          1 MOL1         0.0742
      12    H6      20.380839   18.619764   21.438825 H          1 MOL1         0.0742
      13    C5      19.592278   18.814691   23.453314 C.3        1 MOL1        -0.1880
      14    H7      19.051171   19.561726   24.050140 H          1 MOL1         0.0742
      15    H8      18.949801   17.925343   23.395072 H          1 MOL1         0.0742
      16    C6      20.914039   18.449600   24.160920 C.3        1 MOL1        -0.1856
      17    H9      21.558742   19.337309   24.222523 H          1 MOL1         0.0742
      18    H10     21.457304   17.701059   23.567581 H          1 MOL1         0.0742
      19    C7      20.665549   17.897415   25.578912 C.3        1 MOL1        -0.2871
      20    H11     20.150757   18.638484   26.204373 H          1 MOL1         0.0754
      21    H12     21.615392   17.643163   26.067009 H          1 MOL1         0.0754
      22    H13     20.048595   16.989901   25.544461 H          1 MOL1         0.0754
@<TRIPOS>BOND
    1     1     2    1
    2     1     3    2
    3     1     4    1
    4     4     5    1
    5     4     6    1
    6     4     7    1
    7     7     8    1
    8     7     9    1
    9     7    10    1
   10    10    11    1
   11    10    12    1
   12    10    13    1
   13    13    14    1
   14    13    15    1
   15    13    16    1
   16    16    17    1
   17    16    18    1
   18    16    19    1
   19    19    20    1
   20    19    21    1
   21    19    22    1
@<TRIPOS>SUBSTRUCTURE
       1 MOL1            1 RESIDUE      1      MOL     
@<SCITEGIC>MOL_PROPERTY
VConf Rank
SciTegic.value.IntegerValue
330

@<SCITEGIC>MOL_PROPERTY
Conf_Id
SciTegic.value.IntegerValue
44

@<SCITEGIC>MOL_PROPERTY
Delta U+W
SciTegic.value.DoubleValue
-0.155

@<SCITEGIC>MOL_PROPERTY
U+W
SciTegic.value.DoubleValue
-53.314

@<SCITEGIC>MOL_PROPERTY
Grad RMS
SciTegic.value.DoubleValue
0.000000

@<SCITEGIC>MOL_PROPERTY
U
SciTegic.value.DoubleValue
7.937

@<SCITEGIC>MOL_PROPERTY
W
SciTegic.value.DoubleValue
-61.252

@<SCITEGIC>MOL_PROPERTY
W(PB)
SciTegic.value.DoubleValue
-63.556

@<SCITEGIC>MOL_PROPERTY
W(SA)
SciTegic.value.DoubleValue
2.304

@<SCITEGIC>MOL_PROPERTY
Valence
SciTegic.value.DoubleValue
7.358

@<SCITEGIC>MOL_PROPERTY
Coulomb
SciTegic.value.DoubleValue
-0.021

@<SCITEGIC>MOL_PROPERTY
VdW
SciTegic.value.DoubleValue
0.600

@<SCITEGIC>MOL_PROPERTY
VdW6
SciTegic.value.DoubleValue
-7.363

@<SCITEGIC>MOL_PROPERTY
VdW12
SciTegic.value.DoubleValue
7.964

@<SCITEGIC>MOL_PROPERTY
Bond
SciTegic.value.DoubleValue
0.121

@<SCITEGIC>MOL_PROPERTY
Angle
SciTegic.value.DoubleValue
2.425

@<SCITEGIC>MOL_PROPERTY
Pdih
SciTegic.value.DoubleValue
4.811

@<SCITEGIC>MOL_PROPERTY
Idih
SciTegic.value.DoubleValue
0.001

@<SCITEGIC>MOL_PROPERTY
Tether
SciTegic.value.DoubleValue
0.000

@<TRIPOS>MOLECULE
guest-s21_confgen4.mol2 : confsearch ligand conformer 331
          22          21           1
SMALL
USER_CHARGES
 
@<TRIPOS>ATOM
       1    C1      19.731918   17.147897   25.304819 C.2        1 MOL1         0.6145
       2    O1      19.551761   15.965636   25.088657 O.co2      1 MOL1        -0.6735
       3    O2      19.104786   17.783722   26.129015 O.co2      1 MOL1        -0.6735
       4    C2      20.818658   17.866865   24.510218 C.3        1 MOL1        -0.1985
       5    H1      21.707961   17.225690   24.518396 H          1 MOL1         0.0740
       6    H2      21.087602   18.789271   25.039110 H          1 MOL1         0.0740
       7    C3      20.424401   18.185826   23.044458 C.3        1 MOL1        -0.1882
       8    H3      21.313546   18.555549   22.518254 H          1 MOL1         0.0742
       9    H4      20.119187   17.258665   22.539860 H          1 MOL1         0.0742
      10    C4      19.289014   19.233242   22.949452 C.3        1 MOL1        -0.1880
      11    H5      19.611763   20.173316   23.417315 H          1 MOL1         0.0742
      12    H6      18.424339   18.880952   23.528433 H          1 MOL1         0.0742
      13    C5      18.823520   19.508438   21.499829 C.3        1 MOL1        -0.1880
      14    H7      18.501064   18.568045   21.032281 H          1 MOL1         0.0742
      15    H8      17.937154   20.156426   21.536825 H          1 MOL1         0.0742
      16    C6      19.901456   20.184248   20.622469 C.3        1 MOL1        -0.1856
      17    H9      20.766363   19.518407   20.504971 H          1 MOL1         0.0742
      18    H10     20.263183   21.096459   21.116654 H          1 MOL1         0.0742
      19    C7      19.351656   20.541800   19.226899 C.3        1 MOL1        -0.2871
      20    H11     19.007308   19.642988   18.698747 H          1 MOL1         0.0754
      21    H12     20.129183   21.017473   18.615140 H          1 MOL1         0.0754
      22    H13     18.507234   21.239237   19.303643 H          1 MOL1         0.0754
@<TRIPOS>BOND
    1     1     2    1
    2     1     3    2
    3     1     4    1
    4     4     5    1
    5     4     6    1
    6     4     7    1
    7     7     8    1
    8     7     9    1
    9     7    10    1
   10    10    11    1
   11    10    12    1
   12    10    13    1
   13    13    14    1
   14    13    15    1
   15    13    16    1
   16    16    17    1
   17    16    18    1
   18    16    19    1
   19    19    20    1
   20    19    21    1
   21    19    22    1
@<TRIPOS>SUBSTRUCTURE
       1 MOL1            1 RESIDUE      1      MOL     
@<SCITEGIC>MOL_PROPERTY
VConf Rank
SciTegic.value.IntegerValue
331

@<SCITEGIC>MOL_PROPERTY
Conf_Id
SciTegic.value.IntegerValue
53

@<SCITEGIC>MOL_PROPERTY
Delta U+W
SciTegic.value.DoubleValue
0.723

@<SCITEGIC>MOL_PROPERTY
U+W
SciTegic.value.DoubleValue
-52.436

@<SCITEGIC>MOL_PROPERTY
Grad RMS
SciTegic.value.DoubleValue
0.000000

@<SCITEGIC>MOL_PROPERTY
U
SciTegic.value.DoubleValue
8.587

@<SCITEGIC>MOL_PROPERTY
W
SciTegic.value.DoubleValue
-61.022

@<SCITEGIC>MOL_PROPERTY
W(PB)
SciTegic.value.DoubleValue
-63.285

@<SCITEGIC>MOL_PROPERTY
W(SA)
SciTegic.value.DoubleValue
2.263

@<SCITEGIC>MOL_PROPERTY
Valence
SciTegic.value.DoubleValue
7.933

@<SCITEGIC>MOL_PROPERTY
Coulomb
SciTegic.value.DoubleValue
-0.124

@<SCITEGIC>MOL_PROPERTY
VdW
SciTegic.value.DoubleValue
0.778

@<SCITEGIC>MOL_PROPERTY
VdW6
SciTegic.value.DoubleValue
-7.981

@<SCITEGIC>MOL_PROPERTY
VdW12
SciTegic.value.DoubleValue
8.759

@<SCITEGIC>MOL_PROPERTY
Bond
SciTegic.value.DoubleValue
0.160

@<SCITEGIC>MOL_PROPERTY
Angle
SciTegic.value.DoubleValue
2.698

@<SCITEGIC>MOL_PROPERTY
Pdih
SciTegic.value.DoubleValue
5.074

@<SCITEGIC>MOL_PROPERTY
Idih
SciTegic.value.DoubleValue
0.001

@<SCITEGIC>MOL_PROPERTY
Tether
SciTegic.value.DoubleValue
0.000

@<TRIPOS>MOLECULE
guest-s21_confgen4.mol2 : confsearch ligand conformer 332
          22          21           1
SMALL
USER_CHARGES
 
@<TRIPOS>ATOM
       1    C1      19.123030   20.858018   25.043926 C.2        1 MOL1         0.6145
       2    O1      20.052604   20.762339   25.820655 O.co2      1 MOL1        -0.6735
       3    O2      18.170298   21.590892   25.222196 O.co2      1 MOL1        -0.6735
       4    C2      19.164727   20.029850   23.764708 C.3        1 MOL1        -0.1985
       5    H1      18.133339   19.790874   23.479382 H          1 MOL1         0.0740
       6    H2      19.670655   19.086154   23.997523 H          1 MOL1         0.0740
       7    C3      19.888093   20.756265   22.602727 C.3        1 MOL1        -0.1882
       8    H3      19.446898   21.755539   22.483484 H          1 MOL1         0.0742
       9    H4      20.940387   20.915635   22.875735 H          1 MOL1         0.0742
      10    C4      19.810468   20.019472   21.241927 C.3        1 MOL1        -0.1880
      11    H5      20.312595   20.650156   20.495566 H          1 MOL1         0.0742
      12    H6      18.765008   19.943323   20.913035 H          1 MOL1         0.0742
      13    C5      20.482672   18.623213   21.224340 C.3        1 MOL1        -0.1880
      14    H7      20.958222   18.478268   20.244628 H          1 MOL1         0.0742
      15    H8      21.292637   18.584830   21.965587 H          1 MOL1         0.0742
      16    C6      19.488355   17.461224   21.452088 C.3        1 MOL1        -0.1856
      17    H9      18.717286   17.478792   20.669567 H          1 MOL1         0.0742
      18    H10     18.966700   17.580992   22.409113 H          1 MOL1         0.0742
      19    C7      20.201930   16.094568   21.432241 C.3        1 MOL1        -0.2871
      20    H11     20.701583   15.925836   20.469324 H          1 MOL1         0.0754
      21    H12     19.482488   15.280229   21.588086 H          1 MOL1         0.0754
      22    H13     20.958012   16.035399   22.226090 H          1 MOL1         0.0754
@<TRIPOS>BOND
    1     1     2    1
    2     1     3    2
    3     1     4    1
    4     4     5    1
    5     4     6    1
    6     4     7    1
    7     7     8    1
    8     7     9    1
    9     7    10    1
   10    10    11    1
   11    10    12    1
   12    10    13    1
   13    13    14    1
   14    13    15    1
   15    13    16    1
   16    16    17    1
   17    16    18    1
   18    16    19    1
   19    19    20    1
   20    19    21    1
   21    19    22    1
@<TRIPOS>SUBSTRUCTURE
       1 MOL1            1 RESIDUE      1      MOL     
@<SCITEGIC>MOL_PROPERTY
VConf Rank
SciTegic.value.IntegerValue
332

@<SCITEGIC>MOL_PROPERTY
Conf_Id
SciTegic.value.IntegerValue
5

@<SCITEGIC>MOL_PROPERTY
Delta U+W
SciTegic.value.DoubleValue
2.167

@<SCITEGIC>MOL_PROPERTY
U+W
SciTegic.value.DoubleValue
-50.993

@<SCITEGIC>MOL_PROPERTY
Grad RMS
SciTegic.value.DoubleValue
0.000000

@<SCITEGIC>MOL_PROPERTY
U
SciTegic.value.DoubleValue
10.045

@<SCITEGIC>MOL_PROPERTY
W
SciTegic.value.DoubleValue
-61.037

@<SCITEGIC>MOL_PROPERTY
W(PB)
SciTegic.value.DoubleValue
-63.303

@<SCITEGIC>MOL_PROPERTY
W(SA)
SciTegic.value.DoubleValue
2.266

@<SCITEGIC>MOL_PROPERTY
Valence
SciTegic.value.DoubleValue
10.100

@<SCITEGIC>MOL_PROPERTY
Coulomb
SciTegic.value.DoubleValue
-0.883

@<SCITEGIC>MOL_PROPERTY
VdW
SciTegic.value.DoubleValue
0.828

@<SCITEGIC>MOL_PROPERTY
VdW6
SciTegic.value.DoubleValue
-8.177

@<SCITEGIC>MOL_PROPERTY
VdW12
SciTegic.value.DoubleValue
9.005

@<SCITEGIC>MOL_PROPERTY
Bond
SciTegic.value.DoubleValue
0.182

@<SCITEGIC>MOL_PROPERTY
Angle
SciTegic.value.DoubleValue
2.988

@<SCITEGIC>MOL_PROPERTY
Pdih
SciTegic.value.DoubleValue
6.930

@<SCITEGIC>MOL_PROPERTY
Idih
SciTegic.value.DoubleValue
0.001

@<SCITEGIC>MOL_PROPERTY
Tether
SciTegic.value.DoubleValue
0.000

@<TRIPOS>MOLECULE
guest-s21_confgen4.mol2 : confsearch ligand conformer 333
          22          21           1
SMALL
USER_CHARGES
 
@<TRIPOS>ATOM
       1    C1      22.845044   20.434550   22.426852 C.2        1 MOL1         0.6145
       2    O1      23.481368   20.016424   23.373864 O.co2      1 MOL1        -0.6735
       3    O2      23.232317   21.325600   21.697035 O.co2      1 MOL1        -0.6735
       4    C2      21.475567   19.823522   22.152664 C.3        1 MOL1        -0.1985
       5    H1      21.521452   18.766519   22.437918 H          1 MOL1         0.0740
       6    H2      21.292728   19.867212   21.072413 H          1 MOL1         0.0740
       7    C3      20.334680   20.539090   22.919138 C.3        1 MOL1        -0.1882
       8    H3      20.492624   20.415934   23.999481 H          1 MOL1         0.0742
       9    H4      20.399606   21.617799   22.720156 H          1 MOL1         0.0742
      10    C4      18.911418   20.055175   22.543873 C.3        1 MOL1        -0.1880
      11    H5      18.708224   20.265497   21.484897 H          1 MOL1         0.0742
      12    H6      18.194859   20.664393   23.111625 H          1 MOL1         0.0742
      13    C5      18.632493   18.563646   22.858916 C.3        1 MOL1        -0.1880
      14    H7      19.256106   18.232586   23.700621 H          1 MOL1         0.0742
      15    H8      17.590759   18.467777   23.194465 H          1 MOL1         0.0742
      16    C6      18.832381   17.632077   21.641139 C.3        1 MOL1        -0.1856
      17    H9      19.854319   17.717472   21.252917 H          1 MOL1         0.0742
      18    H10     18.160644   17.940722   20.828303 H          1 MOL1         0.0742
      19    C7      18.549866   16.160158   22.003040 C.3        1 MOL1        -0.2871
      20    H11     19.229405   15.813034   22.792401 H          1 MOL1         0.0754
      21    H12     18.688937   15.512943   21.127366 H          1 MOL1         0.0754
      22    H13     17.518673   16.033446   22.357888 H          1 MOL1         0.0754
@<TRIPOS>BOND
    1     1     2    1
    2     1     3    2
    3     1     4    1
    4     4     5    1
    5     4     6    1
    6     4     7    1
    7     7     8    1
    8     7     9    1
    9     7    10    1
   10    10    11    1
   11    10    12    1
   12    10    13    1
   13    13    14    1
   14    13    15    1
   15    13    16    1
   16    16    17    1
   17    16    18    1
   18    16    19    1
   19    19    20    1
   20    19    21    1
   21    19    22    1
@<TRIPOS>SUBSTRUCTURE
       1 MOL1            1 RESIDUE      1      MOL     
@<SCITEGIC>MOL_PROPERTY
VConf Rank
SciTegic.value.IntegerValue
333

@<SCITEGIC>MOL_PROPERTY
Conf_Id
SciTegic.value.IntegerValue
6

@<SCITEGIC>MOL_PROPERTY
Delta U+W
SciTegic.value.DoubleValue
2.118

@<SCITEGIC>MOL_PROPERTY
U+W
SciTegic.value.DoubleValue
-51.042

@<SCITEGIC>MOL_PROPERTY
Grad RMS
SciTegic.value.DoubleValue
0.000000

@<SCITEGIC>MOL_PROPERTY
U
SciTegic.value.DoubleValue
10.045

@<SCITEGIC>MOL_PROPERTY
W
SciTegic.value.DoubleValue
-61.086

@<SCITEGIC>MOL_PROPERTY
W(PB)
SciTegic.value.DoubleValue
-63.356

@<SCITEGIC>MOL_PROPERTY
W(SA)
SciTegic.value.DoubleValue
2.270

@<SCITEGIC>MOL_PROPERTY
Valence
SciTegic.value.DoubleValue
10.100

@<SCITEGIC>MOL_PROPERTY
Coulomb
SciTegic.value.DoubleValue
-0.883

@<SCITEGIC>MOL_PROPERTY
VdW
SciTegic.value.DoubleValue
0.828

@<SCITEGIC>MOL_PROPERTY
VdW6
SciTegic.value.DoubleValue
-8.177

@<SCITEGIC>MOL_PROPERTY
VdW12
SciTegic.value.DoubleValue
9.004

@<SCITEGIC>MOL_PROPERTY
Bond
SciTegic.value.DoubleValue
0.182

@<SCITEGIC>MOL_PROPERTY
Angle
SciTegic.value.DoubleValue
2.988

@<SCITEGIC>MOL_PROPERTY
Pdih
SciTegic.value.DoubleValue
6.930

@<SCITEGIC>MOL_PROPERTY
Idih
SciTegic.value.DoubleValue
0.001

@<SCITEGIC>MOL_PROPERTY
Tether
SciTegic.value.DoubleValue
0.000

@<TRIPOS>MOLECULE
guest-s21_confgen4.mol2 : confsearch ligand conformer 334
          22          21           1
SMALL
USER_CHARGES
 
@<TRIPOS>ATOM
       1    C1      20.047644   21.406750   21.484793 C.2        1 MOL1         0.6145
       2    O1      19.062865   22.073387   21.736387 O.co2      1 MOL1        -0.6735
       3    O2      20.314376   20.998942   20.371419 O.co2      1 MOL1        -0.6735
       4    C2      21.040022   21.125270   22.611474 C.3        1 MOL1        -0.1985
       5    H1      21.430810   22.099171   22.928232 H          1 MOL1         0.0740
       6    H2      21.889928   20.563088   22.205946 H          1 MOL1         0.0740
       7    C3      20.449567   20.391000   23.848119 C.3        1 MOL1        -0.1882
       8    H3      21.118136   20.571736   24.700628 H          1 MOL1         0.0742
       9    H4      19.483277   20.836682   24.122387 H          1 MOL1         0.0742
      10    C4      20.299837   18.858263   23.683159 C.3        1 MOL1        -0.1880
      11    H5      20.026011   18.434626   24.659133 H          1 MOL1         0.0742
      12    H6      21.270787   18.418462   23.417339 H          1 MOL1         0.0742
      13    C5      19.236725   18.437085   22.643491 C.3        1 MOL1        -0.1880
      14    H7      18.291736   18.957991   22.850126 H          1 MOL1         0.0742
      15    H8      19.557335   18.739436   21.638575 H          1 MOL1         0.0742
      16    C6      18.999937   16.912049   22.655418 C.3        1 MOL1        -0.1856
      17    H9      18.669386   16.595313   23.654302 H          1 MOL1         0.0742
      18    H10     19.944662   16.389581   22.450635 H          1 MOL1         0.0742
      19    C7      17.945741   16.492985   21.611161 C.3        1 MOL1        -0.2871
      20    H11     16.981108   16.977668   21.810992 H          1 MOL1         0.0754
      21    H12     17.790416   15.406498   21.632248 H          1 MOL1         0.0754
      22    H13     18.265176   16.770546   20.598035 H          1 MOL1         0.0754
@<TRIPOS>BOND
    1     1     2    1
    2     1     3    2
    3     1     4    1
    4     4     5    1
    5     4     6    1
    6     4     7    1
    7     7     8    1
    8     7     9    1
    9     7    10    1
   10    10    11    1
   11    10    12    1
   12    10    13    1
   13    13    14    1
   14    13    15    1
   15    13    16    1
   16    16    17    1
   17    16    18    1
   18    16    19    1
   19    19    20    1
   20    19    21    1
   21    19    22    1
@<TRIPOS>SUBSTRUCTURE
       1 MOL1            1 RESIDUE      1      MOL     
@<SCITEGIC>MOL_PROPERTY
VConf Rank
SciTegic.value.IntegerValue
334

@<SCITEGIC>MOL_PROPERTY
Conf_Id
SciTegic.value.IntegerValue
8

@<SCITEGIC>MOL_PROPERTY
Delta U+W
SciTegic.value.DoubleValue
1.886

@<SCITEGIC>MOL_PROPERTY
U+W
SciTegic.value.DoubleValue
-51.274

@<SCITEGIC>MOL_PROPERTY
Grad RMS
SciTegic.value.DoubleValue
0.000000

@<SCITEGIC>MOL_PROPERTY
U
SciTegic.value.DoubleValue
11.237

@<SCITEGIC>MOL_PROPERTY
W
SciTegic.value.DoubleValue
-62.510

@<SCITEGIC>MOL_PROPERTY
W(PB)
SciTegic.value.DoubleValue
-64.777

@<SCITEGIC>MOL_PROPERTY
W(SA)
SciTegic.value.DoubleValue
2.267

@<SCITEGIC>MOL_PROPERTY
Valence
SciTegic.value.DoubleValue
9.029

@<SCITEGIC>MOL_PROPERTY
Coulomb
SciTegic.value.DoubleValue
1.667

@<SCITEGIC>MOL_PROPERTY
VdW
SciTegic.value.DoubleValue
0.540

@<SCITEGIC>MOL_PROPERTY
VdW6
SciTegic.value.DoubleValue
-8.825

@<SCITEGIC>MOL_PROPERTY
VdW12
SciTegic.value.DoubleValue
9.365

@<SCITEGIC>MOL_PROPERTY
Bond
SciTegic.value.DoubleValue
0.186

@<SCITEGIC>MOL_PROPERTY
Angle
SciTegic.value.DoubleValue
3.195

@<SCITEGIC>MOL_PROPERTY
Pdih
SciTegic.value.DoubleValue
5.642

@<SCITEGIC>MOL_PROPERTY
Idih
SciTegic.value.DoubleValue
0.007

@<SCITEGIC>MOL_PROPERTY
Tether
SciTegic.value.DoubleValue
0.000

@<TRIPOS>MOLECULE
guest-s21_confgen4.mol2 : confsearch ligand conformer 335
          22          21           1
SMALL
USER_CHARGES
 
@<TRIPOS>ATOM
       1    C1      18.559697   16.124533   23.036805 C.2        1 MOL1         0.6145
       2    O1      18.516207   16.397418   24.220192 O.co2      1 MOL1        -0.6735
       3    O2      19.012822   15.083295   22.603436 O.co2      1 MOL1        -0.6735
       4    C2      17.987504   17.129386   22.040798 C.3        1 MOL1        -0.1985
       5    H1      17.380601   17.859671   22.587663 H          1 MOL1         0.0740
       6    H2      17.298025   16.582717   21.386967 H          1 MOL1         0.0740
       7    C3      19.058976   17.844267   21.172444 C.3        1 MOL1        -0.1882
       8    H3      19.592308   17.087608   20.580541 H          1 MOL1         0.0742
       9    H4      18.557234   18.501794   20.449779 H          1 MOL1         0.0742
      10    C4      20.095999   18.667470   21.975970 C.3        1 MOL1        -0.1880
      11    H5      20.849000   19.042819   21.271629 H          1 MOL1         0.0742
      12    H6      20.628229   18.010388   22.677324 H          1 MOL1         0.0742
      13    C5      19.474000   19.856378   22.748665 C.3        1 MOL1        -0.1880
      14    H7      18.924198   20.505335   22.053636 H          1 MOL1         0.0742
      15    H8      18.739571   19.475154   23.469924 H          1 MOL1         0.0742
      16    C6      20.514728   20.694824   23.527057 C.3        1 MOL1        -0.1856
      17    H9      21.076772   20.044949   24.211999 H          1 MOL1         0.0742
      18    H10     19.981121   21.420341   24.156395 H          1 MOL1         0.0742
      19    C7      21.495434   21.460653   22.612436 C.3        1 MOL1        -0.2871
      20    H11     22.139729   20.774003   22.049635 H          1 MOL1         0.0754
      21    H12     22.146989   22.111878   23.209328 H          1 MOL1         0.0754
      22    H13     20.953356   22.090947   21.895513 H          1 MOL1         0.0754
@<TRIPOS>BOND
    1     1     2    1
    2     1     3    2
    3     1     4    1
    4     4     5    1
    5     4     6    1
    6     4     7    1
    7     7     8    1
    8     7     9    1
    9     7    10    1
   10    10    11    1
   11    10    12    1
   12    10    13    1
   13    13    14    1
   14    13    15    1
   15    13    16    1
   16    16    17    1
   17    16    18    1
   18    16    19    1
   19    19    20    1
   20    19    21    1
   21    19    22    1
@<TRIPOS>SUBSTRUCTURE
       1 MOL1            1 RESIDUE      1      MOL     
@<SCITEGIC>MOL_PROPERTY
VConf Rank
SciTegic.value.IntegerValue
335

@<SCITEGIC>MOL_PROPERTY
Conf_Id
SciTegic.value.IntegerValue
93

@<SCITEGIC>MOL_PROPERTY
Delta U+W
SciTegic.value.DoubleValue
1.836

@<SCITEGIC>MOL_PROPERTY
U+W
SciTegic.value.DoubleValue
-51.323

@<SCITEGIC>MOL_PROPERTY
Grad RMS
SciTegic.value.DoubleValue
0.000000

@<SCITEGIC>MOL_PROPERTY
U
SciTegic.value.DoubleValue
10.427

@<SCITEGIC>MOL_PROPERTY
W
SciTegic.value.DoubleValue
-61.751

@<SCITEGIC>MOL_PROPERTY
W(PB)
SciTegic.value.DoubleValue
-63.980

@<SCITEGIC>MOL_PROPERTY
W(SA)
SciTegic.value.DoubleValue
2.230

@<SCITEGIC>MOL_PROPERTY
Valence
SciTegic.value.DoubleValue
8.446

@<SCITEGIC>MOL_PROPERTY
Coulomb
SciTegic.value.DoubleValue
1.306

@<SCITEGIC>MOL_PROPERTY
VdW
SciTegic.value.DoubleValue
0.676

@<SCITEGIC>MOL_PROPERTY
VdW6
SciTegic.value.DoubleValue
-8.928

@<SCITEGIC>MOL_PROPERTY
VdW12
SciTegic.value.DoubleValue
9.604

@<SCITEGIC>MOL_PROPERTY
Bond
SciTegic.value.DoubleValue
0.209

@<SCITEGIC>MOL_PROPERTY
Angle
SciTegic.value.DoubleValue
3.066

@<SCITEGIC>MOL_PROPERTY
Pdih
SciTegic.value.DoubleValue
5.170

@<SCITEGIC>MOL_PROPERTY
Idih
SciTegic.value.DoubleValue
0.001

@<SCITEGIC>MOL_PROPERTY
Tether
SciTegic.value.DoubleValue
0.000

@<TRIPOS>MOLECULE
guest-s21_confgen4.mol2 : confsearch ligand conformer 336
          22          21           1
SMALL
USER_CHARGES
 
@<TRIPOS>ATOM
       1    C1      20.830786   21.897799   23.203450 C.2        1 MOL1         0.6145
       2    O1      20.652071   22.922692   22.574990 O.co2      1 MOL1        -0.6735
       3    O2      21.925127   21.399463   23.379074 O.co2      1 MOL1        -0.6735
       4    C2      19.616802   21.217922   23.830486 C.3        1 MOL1        -0.1985
       5    H1      19.062316   21.986272   24.381762 H          1 MOL1         0.0740
       6    H2      19.965238   20.494242   24.575864 H          1 MOL1         0.0740
       7    C3      18.668510   20.538273   22.804830 C.3        1 MOL1        -0.1882
       8    H3      17.798904   20.127356   23.335173 H          1 MOL1         0.0742
       9    H4      18.278051   21.308020   22.124861 H          1 MOL1         0.0742
      10    C4      19.326849   19.418531   21.961325 C.3        1 MOL1        -0.1880
      11    H5      20.176922   19.828702   21.399132 H          1 MOL1         0.0742
      12    H6      18.595663   19.082754   21.215258 H          1 MOL1         0.0742
      13    C5      19.797479   18.207884   22.804108 C.3        1 MOL1        -0.1880
      14    H7      20.547370   18.543040   23.532304 H          1 MOL1         0.0742
      15    H8      18.954492   17.807025   23.383055 H          1 MOL1         0.0742
      16    C6      20.428175   17.077936   21.957095 C.3        1 MOL1        -0.1856
      17    H9      20.862096   16.330879   22.635913 H          1 MOL1         0.0742
      18    H10     21.262019   17.479876   21.365040 H          1 MOL1         0.0742
      19    C7      19.419344   16.372183   21.024903 C.3        1 MOL1        -0.2871
      20    H11     19.047335   17.051023   20.247641 H          1 MOL1         0.0754
      21    H12     18.559444   15.992581   21.591976 H          1 MOL1         0.0754
      22    H13     19.894186   15.520358   20.521100 H          1 MOL1         0.0754
@<TRIPOS>BOND
    1     1     2    1
    2     1     3    2
    3     1     4    1
    4     4     5    1
    5     4     6    1
    6     4     7    1
    7     7     8    1
    8     7     9    1
    9     7    10    1
   10    10    11    1
   11    10    12    1
   12    10    13    1
   13    13    14    1
   14    13    15    1
   15    13    16    1
   16    16    17    1
   17    16    18    1
   18    16    19    1
   19    19    20    1
   20    19    21    1
   21    19    22    1
@<TRIPOS>SUBSTRUCTURE
       1 MOL1            1 RESIDUE      1      MOL     
@<SCITEGIC>MOL_PROPERTY
VConf Rank
SciTegic.value.IntegerValue
336

@<SCITEGIC>MOL_PROPERTY
Conf_Id
SciTegic.value.IntegerValue
70

@<SCITEGIC>MOL_PROPERTY
Delta U+W
SciTegic.value.DoubleValue
1.803

@<SCITEGIC>MOL_PROPERTY
U+W
SciTegic.value.DoubleValue
-51.356

@<SCITEGIC>MOL_PROPERTY
Grad RMS
SciTegic.value.DoubleValue
0.000000

@<SCITEGIC>MOL_PROPERTY
U
SciTegic.value.DoubleValue
10.428

@<SCITEGIC>MOL_PROPERTY
W
SciTegic.value.DoubleValue
-61.784

@<SCITEGIC>MOL_PROPERTY
W(PB)
SciTegic.value.DoubleValue
-64.014

@<SCITEGIC>MOL_PROPERTY
W(SA)
SciTegic.value.DoubleValue
2.230

@<SCITEGIC>MOL_PROPERTY
Valence
SciTegic.value.DoubleValue
8.445

@<SCITEGIC>MOL_PROPERTY
Coulomb
SciTegic.value.DoubleValue
1.306

@<SCITEGIC>MOL_PROPERTY
VdW
SciTegic.value.DoubleValue
0.676

@<SCITEGIC>MOL_PROPERTY
VdW6
SciTegic.value.DoubleValue
-8.929

@<SCITEGIC>MOL_PROPERTY
VdW12
SciTegic.value.DoubleValue
9.605

@<SCITEGIC>MOL_PROPERTY
Bond
SciTegic.value.DoubleValue
0.209

@<SCITEGIC>MOL_PROPERTY
Angle
SciTegic.value.DoubleValue
3.066

@<SCITEGIC>MOL_PROPERTY
Pdih
SciTegic.value.DoubleValue
5.170

@<SCITEGIC>MOL_PROPERTY
Idih
SciTegic.value.DoubleValue
0.001

@<SCITEGIC>MOL_PROPERTY
Tether
SciTegic.value.DoubleValue
0.000

@<TRIPOS>MOLECULE
guest-s21_confgen4.mol2 : confsearch ligand conformer 337
          22          21           1
SMALL
USER_CHARGES
 
@<TRIPOS>ATOM
       1    C1      18.087576   19.545194   25.256300 C.2        1 MOL1         0.6145
       2    O1      17.815315   20.729145   25.223943 O.co2      1 MOL1        -0.6735
       3    O2      18.725486   19.026190   26.151054 O.co2      1 MOL1        -0.6735
       4    C2      17.581716   18.659814   24.120826 C.3        1 MOL1        -0.1985
       5    H1      16.534318   18.927087   23.937624 H          1 MOL1         0.0740
       6    H2      17.588292   17.617000   24.460436 H          1 MOL1         0.0740
       7    C3      18.389975   18.800559   22.804813 C.3        1 MOL1        -0.1882
       8    H3      17.882634   18.234259   22.012238 H          1 MOL1         0.0742
       9    H4      18.385224   19.854158   22.495721 H          1 MOL1         0.0742
      10    C4      19.844212   18.290843   22.946052 C.3        1 MOL1        -0.1880
      11    H5      19.826252   17.265306   23.339489 H          1 MOL1         0.0742
      12    H6      20.381811   18.897169   23.688118 H          1 MOL1         0.0742
      13    C5      20.629622   18.292006   21.613139 C.3        1 MOL1        -0.1880
      14    H7      21.599617   17.804170   21.780520 H          1 MOL1         0.0742
      15    H8      20.098049   17.679937   20.871745 H          1 MOL1         0.0742
      16    C6      20.872120   19.707687   21.042868 C.3        1 MOL1        -0.1856
      17    H9      21.356357   20.335524   21.803529 H          1 MOL1         0.0742
      18    H10     19.914889   20.185002   20.795402 H          1 MOL1         0.0742
      19    C7      21.752793   19.664531   19.777844 C.3        1 MOL1        -0.2871
      20    H11     22.735507   19.227064   19.997494 H          1 MOL1         0.0754
      21    H12     21.913054   20.676402   19.383518 H          1 MOL1         0.0754
      22    H13     21.278630   19.064750   18.989932 H          1 MOL1         0.0754
@<TRIPOS>BOND
    1     1     2    1
    2     1     3    2
    3     1     4    1
    4     4     5    1
    5     4     6    1
    6     4     7    1
    7     7     8    1
    8     7     9    1
    9     7    10    1
   10    10    11    1
   11    10    12    1
   12    10    13    1
   13    13    14    1
   14    13    15    1
   15    13    16    1
   16    16    17    1
   17    16    18    1
   18    16    19    1
   19    19    20    1
   20    19    21    1
   21    19    22    1
@<TRIPOS>SUBSTRUCTURE
       1 MOL1            1 RESIDUE      1      MOL     
@<SCITEGIC>MOL_PROPERTY
VConf Rank
SciTegic.value.IntegerValue
337

@<SCITEGIC>MOL_PROPERTY
Conf_Id
SciTegic.value.IntegerValue
85

@<SCITEGIC>MOL_PROPERTY
Delta U+W
SciTegic.value.DoubleValue
0.707

@<SCITEGIC>MOL_PROPERTY
U+W
SciTegic.value.DoubleValue
-52.452

@<SCITEGIC>MOL_PROPERTY
Grad RMS
SciTegic.value.DoubleValue
0.000000

@<SCITEGIC>MOL_PROPERTY
U
SciTegic.value.DoubleValue
8.925

@<SCITEGIC>MOL_PROPERTY
W
SciTegic.value.DoubleValue
-61.378

@<SCITEGIC>MOL_PROPERTY
W(PB)
SciTegic.value.DoubleValue
-63.661

@<SCITEGIC>MOL_PROPERTY
W(SA)
SciTegic.value.DoubleValue
2.283

@<SCITEGIC>MOL_PROPERTY
Valence
SciTegic.value.DoubleValue
7.881

@<SCITEGIC>MOL_PROPERTY
Coulomb
SciTegic.value.DoubleValue
0.349

@<SCITEGIC>MOL_PROPERTY
VdW
SciTegic.value.DoubleValue
0.695

@<SCITEGIC>MOL_PROPERTY
VdW6
SciTegic.value.DoubleValue
-8.049

@<SCITEGIC>MOL_PROPERTY
VdW12
SciTegic.value.DoubleValue
8.743

@<SCITEGIC>MOL_PROPERTY
Bond
SciTegic.value.DoubleValue
0.156

@<SCITEGIC>MOL_PROPERTY
Angle
SciTegic.value.DoubleValue
2.660

@<SCITEGIC>MOL_PROPERTY
Pdih
SciTegic.value.DoubleValue
5.064

@<SCITEGIC>MOL_PROPERTY
Idih
SciTegic.value.DoubleValue
0.001

@<SCITEGIC>MOL_PROPERTY
Tether
SciTegic.value.DoubleValue
0.000

@<TRIPOS>MOLECULE
guest-s21_confgen4.mol2 : confsearch ligand conformer 338
          22          21           1
SMALL
USER_CHARGES
 
@<TRIPOS>ATOM
       1    C1      16.778038   18.059873   23.352781 C.2        1 MOL1         0.6145
       2    O1      15.927620   18.453364   22.578899 O.co2      1 MOL1        -0.6735
       3    O2      16.807010   16.931170   23.802408 O.co2      1 MOL1        -0.6735
       4    C2      17.855891   19.041786   23.803864 C.3        1 MOL1        -0.1985
       5    H1      17.948085   18.948219   24.892320 H          1 MOL1         0.0740
       6    H2      17.508215   20.062050   23.601287 H          1 MOL1         0.0740
       7    C3      19.240818   18.807572   23.145982 C.3        1 MOL1        -0.1882
       8    H3      19.974312   19.452264   23.646247 H          1 MOL1         0.0742
       9    H4      19.555067   17.768617   23.316560 H          1 MOL1         0.0742
      10    C4      19.239456   19.115081   21.630556 C.3        1 MOL1        -0.1880
      11    H5      19.007982   20.177458   21.474104 H          1 MOL1         0.0742
      12    H6      18.429389   18.550815   21.148647 H          1 MOL1         0.0742
      13    C5      20.565103   18.764840   20.909088 C.3        1 MOL1        -0.1880
      14    H7      20.758722   17.685782   20.980316 H          1 MOL1         0.0742
      15    H8      20.423067   18.972055   19.839624 H          1 MOL1         0.0742
      16    C6      21.799578   19.564940   21.394694 C.3        1 MOL1        -0.1856
      17    H9      21.489157   20.541439   21.791305 H          1 MOL1         0.0742
      18    H10     22.442698   19.777480   20.529523 H          1 MOL1         0.0742
      19    C7      22.644427   18.805075   22.441529 C.3        1 MOL1        -0.2871
      20    H11     22.065859   18.572655   23.342719 H          1 MOL1         0.0754
      21    H12     23.510890   19.406548   22.745323 H          1 MOL1         0.0754
      22    H13     23.020337   17.860265   22.027871 H          1 MOL1         0.0754
@<TRIPOS>BOND
    1     1     2    1
    2     1     3    2
    3     1     4    1
    4     4     5    1
    5     4     6    1
    6     4     7    1
    7     7     8    1
    8     7     9    1
    9     7    10    1
   10    10    11    1
   11    10    12    1
   12    10    13    1
   13    13    14    1
   14    13    15    1
   15    13    16    1
   16    16    17    1
   17    16    18    1
   18    16    19    1
   19    19    20    1
   20    19    21    1
   21    19    22    1
@<TRIPOS>SUBSTRUCTURE
       1 MOL1            1 RESIDUE      1      MOL     
@<SCITEGIC>MOL_PROPERTY
VConf Rank
SciTegic.value.IntegerValue
338

@<SCITEGIC>MOL_PROPERTY
Conf_Id
SciTegic.value.IntegerValue
82

@<SCITEGIC>MOL_PROPERTY
Delta U+W
SciTegic.value.DoubleValue
3.438

@<SCITEGIC>MOL_PROPERTY
U+W
SciTegic.value.DoubleValue
-49.721

@<SCITEGIC>MOL_PROPERTY
Grad RMS
SciTegic.value.DoubleValue
0.000000

@<SCITEGIC>MOL_PROPERTY
U
SciTegic.value.DoubleValue
11.773

@<SCITEGIC>MOL_PROPERTY
W
SciTegic.value.DoubleValue
-61.495

@<SCITEGIC>MOL_PROPERTY
W(PB)
SciTegic.value.DoubleValue
-63.749

@<SCITEGIC>MOL_PROPERTY
W(SA)
SciTegic.value.DoubleValue
2.254

@<SCITEGIC>MOL_PROPERTY
Valence
SciTegic.value.DoubleValue
10.419

@<SCITEGIC>MOL_PROPERTY
Coulomb
SciTegic.value.DoubleValue
0.565

@<SCITEGIC>MOL_PROPERTY
VdW
SciTegic.value.DoubleValue
0.789

@<SCITEGIC>MOL_PROPERTY
VdW6
SciTegic.value.DoubleValue
-8.847

@<SCITEGIC>MOL_PROPERTY
VdW12
SciTegic.value.DoubleValue
9.636

@<SCITEGIC>MOL_PROPERTY
Bond
SciTegic.value.DoubleValue
0.200

@<SCITEGIC>MOL_PROPERTY
Angle
SciTegic.value.DoubleValue
3.187

@<SCITEGIC>MOL_PROPERTY
Pdih
SciTegic.value.DoubleValue
7.032

@<SCITEGIC>MOL_PROPERTY
Idih
SciTegic.value.DoubleValue
0.001

@<SCITEGIC>MOL_PROPERTY
Tether
SciTegic.value.DoubleValue
0.000

@<TRIPOS>MOLECULE
guest-s21_confgen4.mol2 : confsearch ligand conformer 339
          22          21           1
SMALL
USER_CHARGES
 
@<TRIPOS>ATOM
       1    C1      23.078463   19.738673   21.677924 C.2        1 MOL1         0.6145
       2    O1      23.060610   20.684817   20.915384 O.co2      1 MOL1        -0.6735
       3    O2      23.804612   19.672745   22.650189 O.co2      1 MOL1        -0.6735
       4    C2      22.154509   18.560069   21.383642 C.3        1 MOL1        -0.1985
       5    H1      22.521868   17.681661   21.927979 H          1 MOL1         0.0740
       6    H2      22.245865   18.332304   20.315107 H          1 MOL1         0.0740
       7    C3      20.665540   18.821016   21.730871 C.3        1 MOL1        -0.1882
       8    H3      20.324423   19.729837   21.216126 H          1 MOL1         0.0742
       9    H4      20.068686   17.986831   21.341246 H          1 MOL1         0.0742
      10    C4      20.423986   18.955603   23.252258 C.3        1 MOL1        -0.1880
      11    H5      21.104055   19.716116   23.659647 H          1 MOL1         0.0742
      12    H6      20.687538   18.011623   23.748386 H          1 MOL1         0.0742
      13    C5      18.975483   19.351445   23.633933 C.3        1 MOL1        -0.1880
      14    H7      18.943154   19.470819   24.725524 H          1 MOL1         0.0742
      15    H8      18.733483   20.339430   23.218905 H          1 MOL1         0.0742
      16    C6      17.892705   18.319708   23.230193 C.3        1 MOL1        -0.1856
      17    H9      17.123865   18.292491   24.014695 H          1 MOL1         0.0742
      18    H10     18.324075   17.309974   23.190600 H          1 MOL1         0.0742
      19    C7      17.197373   18.658504   21.892748 C.3        1 MOL1        -0.2871
      20    H11     16.700526   19.635827   21.948157 H          1 MOL1         0.0754
      21    H12     16.433378   17.906746   21.656124 H          1 MOL1         0.0754
      22    H13     17.907771   18.687646   21.058849 H          1 MOL1         0.0754
@<TRIPOS>BOND
    1     1     2    1
    2     1     3    2
    3     1     4    1
    4     4     5    1
    5     4     6    1
    6     4     7    1
    7     7     8    1
    8     7     9    1
    9     7    10    1
   10    10    11    1
   11    10    12    1
   12    10    13    1
   13    13    14    1
   14    13    15    1
   15    13    16    1
   16    16    17    1
   17    16    18    1
   18    16    19    1
   19    19    20    1
   20    19    21    1
   21    19    22    1
@<TRIPOS>SUBSTRUCTURE
       1 MOL1            1 RESIDUE      1      MOL     
@<SCITEGIC>MOL_PROPERTY
VConf Rank
SciTegic.value.IntegerValue
339

@<SCITEGIC>MOL_PROPERTY
Conf_Id
SciTegic.value.IntegerValue
94

@<SCITEGIC>MOL_PROPERTY
Delta U+W
SciTegic.value.DoubleValue
3.471

@<SCITEGIC>MOL_PROPERTY
U+W
SciTegic.value.DoubleValue
-49.688

@<SCITEGIC>MOL_PROPERTY
Grad RMS
SciTegic.value.DoubleValue
0.000000

@<SCITEGIC>MOL_PROPERTY
U
SciTegic.value.DoubleValue
11.773

@<SCITEGIC>MOL_PROPERTY
W
SciTegic.value.DoubleValue
-61.461

@<SCITEGIC>MOL_PROPERTY
W(PB)
SciTegic.value.DoubleValue
-63.710

@<SCITEGIC>MOL_PROPERTY
W(SA)
SciTegic.value.DoubleValue
2.248

@<SCITEGIC>MOL_PROPERTY
Valence
SciTegic.value.DoubleValue
10.419

@<SCITEGIC>MOL_PROPERTY
Coulomb
SciTegic.value.DoubleValue
0.566

@<SCITEGIC>MOL_PROPERTY
VdW
SciTegic.value.DoubleValue
0.789

@<SCITEGIC>MOL_PROPERTY
VdW6
SciTegic.value.DoubleValue
-8.847

@<SCITEGIC>MOL_PROPERTY
VdW12
SciTegic.value.DoubleValue
9.636

@<SCITEGIC>MOL_PROPERTY
Bond
SciTegic.value.DoubleValue
0.200

@<SCITEGIC>MOL_PROPERTY
Angle
SciTegic.value.DoubleValue
3.187

@<SCITEGIC>MOL_PROPERTY
Pdih
SciTegic.value.DoubleValue
7.032

@<SCITEGIC>MOL_PROPERTY
Idih
SciTegic.value.DoubleValue
0.001

@<SCITEGIC>MOL_PROPERTY
Tether
SciTegic.value.DoubleValue
0.000

@<TRIPOS>MOLECULE
guest-s21_confgen4.mol2 : confsearch ligand conformer 340
          22          21           1
SMALL
USER_CHARGES
 
@<TRIPOS>ATOM
       1    C1      18.832394   21.755208   24.078492 C.2        1 MOL1         0.6145
       2    O1      18.294102   22.789562   23.736363 O.co2      1 MOL1        -0.6735
       3    O2      19.570087   21.667013   25.040056 O.co2      1 MOL1        -0.6735
       4    C2      18.583473   20.504043   23.243892 C.3        1 MOL1        -0.1985
       5    H1      17.565908   20.560665   22.839433 H          1 MOL1         0.0740
       6    H2      18.618672   19.640726   23.918042 H          1 MOL1         0.0740
       7    C3      19.608336   20.337100   22.092267 C.3        1 MOL1        -0.1882
       8    H3      19.607302   21.251687   21.483475 H          1 MOL1         0.0742
       9    H4      20.620200   20.251745   22.510205 H          1 MOL1         0.0742
      10    C4      19.309704   19.129069   21.169285 C.3        1 MOL1        -0.1880
      11    H5      20.046091   19.113744   20.355054 H          1 MOL1         0.0742
      12    H6      18.335715   19.284734   20.685902 H          1 MOL1         0.0742
      13    C5      19.296957   17.746866   21.873927 C.3        1 MOL1        -0.1880
      14    H7      18.453953   17.704405   22.575920 H          1 MOL1         0.0742
      15    H8      19.095117   16.972511   21.121479 H          1 MOL1         0.0742
      16    C6      20.597985   17.380349   22.629519 C.3        1 MOL1        -0.1856
      17    H9      20.461803   16.400031   23.106321 H          1 MOL1         0.0742
      18    H10     20.774849   18.093263   23.445898 H          1 MOL1         0.0742
      19    C7      21.838895   17.318970   21.712905 C.3        1 MOL1        -0.2871
      20    H11     21.677387   16.623253   20.879331 H          1 MOL1         0.0754
      21    H12     22.716056   16.975226   22.276086 H          1 MOL1         0.0754
      22    H13     22.076176   18.306196   21.296927 H          1 MOL1         0.0754
@<TRIPOS>BOND
    1     1     2    1
    2     1     3    2
    3     1     4    1
    4     4     5    1
    5     4     6    1
    6     4     7    1
    7     7     8    1
    8     7     9    1
    9     7    10    1
   10    10    11    1
   11    10    12    1
   12    10    13    1
   13    13    14    1
   14    13    15    1
   15    13    16    1
   16    16    17    1
   17    16    18    1
   18    16    19    1
   19    19    20    1
   20    19    21    1
   21    19    22    1
@<TRIPOS>SUBSTRUCTURE
       1 MOL1            1 RESIDUE      1      MOL     
@<SCITEGIC>MOL_PROPERTY
VConf Rank
SciTegic.value.IntegerValue
340

@<SCITEGIC>MOL_PROPERTY
Conf_Id
SciTegic.value.IntegerValue
56

@<SCITEGIC>MOL_PROPERTY
Delta U+W
SciTegic.value.DoubleValue
0.853

@<SCITEGIC>MOL_PROPERTY
U+W
SciTegic.value.DoubleValue
-52.307

@<SCITEGIC>MOL_PROPERTY
Grad RMS
SciTegic.value.DoubleValue
0.000000

@<SCITEGIC>MOL_PROPERTY
U
SciTegic.value.DoubleValue
8.874

@<SCITEGIC>MOL_PROPERTY
W
SciTegic.value.DoubleValue
-61.181

@<SCITEGIC>MOL_PROPERTY
W(PB)
SciTegic.value.DoubleValue
-63.413

@<SCITEGIC>MOL_PROPERTY
W(SA)
SciTegic.value.DoubleValue
2.232

@<SCITEGIC>MOL_PROPERTY
Valence
SciTegic.value.DoubleValue
8.479

@<SCITEGIC>MOL_PROPERTY
Coulomb
SciTegic.value.DoubleValue
-0.357

@<SCITEGIC>MOL_PROPERTY
VdW
SciTegic.value.DoubleValue
0.753

@<SCITEGIC>MOL_PROPERTY
VdW6
SciTegic.value.DoubleValue
-9.081

@<SCITEGIC>MOL_PROPERTY
VdW12
SciTegic.value.DoubleValue
9.833

@<SCITEGIC>MOL_PROPERTY
Bond
SciTegic.value.DoubleValue
0.221

@<SCITEGIC>MOL_PROPERTY
Angle
SciTegic.value.DoubleValue
3.208

@<SCITEGIC>MOL_PROPERTY
Pdih
SciTegic.value.DoubleValue
5.050

@<SCITEGIC>MOL_PROPERTY
Idih
SciTegic.value.DoubleValue
0.000

@<SCITEGIC>MOL_PROPERTY
Tether
SciTegic.value.DoubleValue
0.000

@<TRIPOS>MOLECULE
guest-s21_confgen4.mol2 : confsearch ligand conformer 341
          22          21           1
SMALL
USER_CHARGES
 
@<TRIPOS>ATOM
       1    C1      19.566541   21.754521   19.243292 C.2        1 MOL1         0.6145
       2    O1      20.094035   22.608756   19.929173 O.co2      1 MOL1        -0.6735
       3    O2      19.190257   21.955896   18.105847 O.co2      1 MOL1        -0.6735
       4    C2      19.352446   20.350497   19.811099 C.3        1 MOL1        -0.1985
       5    H1      19.859843   19.646118   19.141496 H          1 MOL1         0.0740
       6    H2      18.279394   20.133778   19.751430 H          1 MOL1         0.0740
       7    C3      19.849535   20.141399   21.266293 C.3        1 MOL1        -0.1882
       8    H3      20.923796   20.366191   21.320344 H          1 MOL1         0.0742
       9    H4      19.341788   20.854157   21.930867 H          1 MOL1         0.0742
      10    C4      19.594954   18.700098   21.758586 C.3        1 MOL1        -0.1880
      11    H5      20.103494   17.989400   21.092684 H          1 MOL1         0.0742
      12    H6      18.520426   18.477648   21.703496 H          1 MOL1         0.0742
      13    C5      20.090060   18.494309   23.206284 C.3        1 MOL1        -0.1880
      14    H7      21.164572   18.716705   23.261891 H          1 MOL1         0.0742
      15    H8      19.581753   19.204797   23.872585 H          1 MOL1         0.0742
      16    C6      19.836027   17.054193   23.698864 C.3        1 MOL1        -0.1856
      17    H9      20.344745   16.340654   23.035882 H          1 MOL1         0.0742
      18    H10     18.761826   16.828740   23.646531 H          1 MOL1         0.0742
      19    C7      20.331779   16.852832   25.144900 C.3        1 MOL1        -0.2871
      20    H11     21.410766   17.041369   25.220050 H          1 MOL1         0.0754
      21    H12     20.143425   15.824163   25.478750 H          1 MOL1         0.0754
      22    H13     19.815945   17.533055   25.835276 H          1 MOL1         0.0754
@<TRIPOS>BOND
    1     1     2    1
    2     1     3    2
    3     1     4    1
    4     4     5    1
    5     4     6    1
    6     4     7    1
    7     7     8    1
    8     7     9    1
    9     7    10    1
   10    10    11    1
   11    10    12    1
   12    10    13    1
   13    13    14    1
   14    13    15    1
   15    13    16    1
   16    16    17    1
   17    16    18    1
   18    16    19    1
   19    19    20    1
   20    19    21    1
   21    19    22    1
@<TRIPOS>SUBSTRUCTURE
       1 MOL1            1 RESIDUE      1      MOL     
@<SCITEGIC>MOL_PROPERTY
VConf Rank
SciTegic.value.IntegerValue
341

@<SCITEGIC>MOL_PROPERTY
Conf_Id
SciTegic.value.IntegerValue
0

@<SCITEGIC>MOL_PROPERTY
Delta U+W
SciTegic.value.DoubleValue
0.000

@<SCITEGIC>MOL_PROPERTY
U+W
SciTegic.value.DoubleValue
-53.159

@<SCITEGIC>MOL_PROPERTY
Grad RMS
SciTegic.value.DoubleValue
0.000000

@<SCITEGIC>MOL_PROPERTY
U
SciTegic.value.DoubleValue
6.763

@<SCITEGIC>MOL_PROPERTY
W
SciTegic.value.DoubleValue
-59.922

@<SCITEGIC>MOL_PROPERTY
W(PB)
SciTegic.value.DoubleValue
-62.256

@<SCITEGIC>MOL_PROPERTY
W(SA)
SciTegic.value.DoubleValue
2.334

@<SCITEGIC>MOL_PROPERTY
Valence
SciTegic.value.DoubleValue
7.600

@<SCITEGIC>MOL_PROPERTY
Coulomb
SciTegic.value.DoubleValue
-2.139

@<SCITEGIC>MOL_PROPERTY
VdW
SciTegic.value.DoubleValue
1.302

@<SCITEGIC>MOL_PROPERTY
VdW6
SciTegic.value.DoubleValue
-6.786

@<SCITEGIC>MOL_PROPERTY
VdW12
SciTegic.value.DoubleValue
8.088

@<SCITEGIC>MOL_PROPERTY
Bond
SciTegic.value.DoubleValue
0.134

@<SCITEGIC>MOL_PROPERTY
Angle
SciTegic.value.DoubleValue
2.720

@<SCITEGIC>MOL_PROPERTY
Pdih
SciTegic.value.DoubleValue
4.746

@<SCITEGIC>MOL_PROPERTY
Idih
SciTegic.value.DoubleValue
0.000

@<SCITEGIC>MOL_PROPERTY
Tether
SciTegic.value.DoubleValue
0.000

@<TRIPOS>MOLECULE
guest-s21_confgen4.mol2 : confsearch ligand conformer 342
          22          21           1
SMALL
USER_CHARGES
 
@<TRIPOS>ATOM
       1    C1      20.344726   22.311101   24.355373 C.2        1 MOL1         0.6145
       2    O1      20.230933   22.146607   25.553882 O.co2      1 MOL1        -0.6735
       3    O2      20.038628   23.339444   23.785070 O.co2      1 MOL1        -0.6735
       4    C2      20.880242   21.155333   23.517735 C.3        1 MOL1        -0.1985
       5    H1      21.595786   20.593565   24.130170 H          1 MOL1         0.0740
       6    H2      21.437615   21.576731   22.672502 H          1 MOL1         0.0740
       7    C3      19.761763   20.215080   23.004920 C.3        1 MOL1        -0.1882
       8    H3      19.205118   19.811941   23.862356 H          1 MOL1         0.0742
       9    H4      19.046954   20.795076   22.404732 H          1 MOL1         0.0742
      10    C4      20.329294   19.053954   22.160187 C.3        1 MOL1        -0.1880
      11    H5      21.044338   18.476977   22.762669 H          1 MOL1         0.0742
      12    H6      20.886174   19.460369   21.304685 H          1 MOL1         0.0742
      13    C5      19.212100   18.118404   21.650365 C.3        1 MOL1        -0.1880
      14    H7      18.654971   17.711786   22.505581 H          1 MOL1         0.0742
      15    H8      18.496830   18.695012   21.047837 H          1 MOL1         0.0742
      16    C6      19.778522   16.957664   20.806020 C.3        1 MOL1        -0.1856
      17    H9      20.493046   16.377259   21.406072 H          1 MOL1         0.0742
      18    H10     20.334922   17.360482   19.948329 H          1 MOL1         0.0742
      19    C7      18.659785   16.025731   20.298804 C.3        1 MOL1        -0.2871
      20    H11     17.947149   16.574178   19.668911 H          1 MOL1         0.0754
      21    H12     18.106357   15.583670   21.137676 H          1 MOL1         0.0754
      22    H13     19.080024   15.206616   19.700857 H          1 MOL1         0.0754
@<TRIPOS>BOND
    1     1     2    1
    2     1     3    2
    3     1     4    1
    4     4     5    1
    5     4     6    1
    6     4     7    1
    7     7     8    1
    8     7     9    1
    9     7    10    1
   10    10    11    1
   11    10    12    1
   12    10    13    1
   13    13    14    1
   14    13    15    1
   15    13    16    1
   16    16    17    1
   17    16    18    1
   18    16    19    1
   19    19    20    1
   20    19    21    1
   21    19    22    1
@<TRIPOS>SUBSTRUCTURE
       1 MOL1            1 RESIDUE      1      MOL     
@<SCITEGIC>MOL_PROPERTY
VConf Rank
SciTegic.value.IntegerValue
342

@<SCITEGIC>MOL_PROPERTY
Conf_Id
SciTegic.value.IntegerValue
10

@<SCITEGIC>MOL_PROPERTY
Delta U+W
SciTegic.value.DoubleValue
-1.291

@<SCITEGIC>MOL_PROPERTY
U+W
SciTegic.value.DoubleValue
-54.451

@<SCITEGIC>MOL_PROPERTY
Grad RMS
SciTegic.value.DoubleValue
0.000000

@<SCITEGIC>MOL_PROPERTY
U
SciTegic.value.DoubleValue
5.779

@<SCITEGIC>MOL_PROPERTY
W
SciTegic.value.DoubleValue
-60.230

@<SCITEGIC>MOL_PROPERTY
W(PB)
SciTegic.value.DoubleValue
-62.557

@<SCITEGIC>MOL_PROPERTY
W(SA)
SciTegic.value.DoubleValue
2.328

@<SCITEGIC>MOL_PROPERTY
Valence
SciTegic.value.DoubleValue
7.101

@<SCITEGIC>MOL_PROPERTY
Coulomb
SciTegic.value.DoubleValue
-2.079

@<SCITEGIC>MOL_PROPERTY
VdW
SciTegic.value.DoubleValue
0.757

@<SCITEGIC>MOL_PROPERTY
VdW6
SciTegic.value.DoubleValue
-6.496

@<SCITEGIC>MOL_PROPERTY
VdW12
SciTegic.value.DoubleValue
7.253

@<SCITEGIC>MOL_PROPERTY
Bond
SciTegic.value.DoubleValue
0.100

@<SCITEGIC>MOL_PROPERTY
Angle
SciTegic.value.DoubleValue
2.262

@<SCITEGIC>MOL_PROPERTY
Pdih
SciTegic.value.DoubleValue
4.738

@<SCITEGIC>MOL_PROPERTY
Idih
SciTegic.value.DoubleValue
0.001

@<SCITEGIC>MOL_PROPERTY
Tether
SciTegic.value.DoubleValue
0.000

@<TRIPOS>MOLECULE
guest-s21_confgen4.mol2 : confsearch ligand conformer 343
          22          21           1
SMALL
USER_CHARGES
 
@<TRIPOS>ATOM
       1    C1      20.630647   21.477821   19.363037 C.2        1 MOL1         0.6145
       2    O1      19.758946   21.503623   18.516914 O.co2      1 MOL1        -0.6735
       3    O2      21.355654   22.420772   19.611362 O.co2      1 MOL1        -0.6735
       4    C2      20.810769   20.198471   20.172375 C.3        1 MOL1        -0.1985
       5    H1      21.872850   20.104067   20.428727 H          1 MOL1         0.0740
       6    H2      20.556102   19.348703   19.527630 H          1 MOL1         0.0740
       7    C3      19.946582   20.172401   21.457153 C.3        1 MOL1        -0.1882
       8    H3      20.204316   21.036617   22.085019 H          1 MOL1         0.0742
       9    H4      18.887547   20.280459   21.184537 H          1 MOL1         0.0742
      10    C4      20.146814   18.867631   22.258295 C.3        1 MOL1        -0.1880
      11    H5      21.205823   18.763340   22.531201 H          1 MOL1         0.0742
      12    H6      19.893604   18.011118   21.619987 H          1 MOL1         0.0742
      13    C5      19.279293   18.844932   23.537808 C.3        1 MOL1        -0.1880
      14    H7      19.493646   19.744458   24.130968 H          1 MOL1         0.0742
      15    H8      18.216302   18.897881   23.265446 H          1 MOL1         0.0742
      16    C6      19.524443   17.602208   24.424850 C.3        1 MOL1        -0.1856
      17    H9      18.962415   17.721345   25.361422 H          1 MOL1         0.0742
      18    H10     20.585710   17.549371   24.704549 H          1 MOL1         0.0742
      19    C7      19.097482   16.278531   23.754183 C.3        1 MOL1        -0.2871
      20    H11     19.207949   15.440482   24.454462 H          1 MOL1         0.0754
      21    H12     19.713711   16.058445   22.873543 H          1 MOL1         0.0754
      22    H13     18.046816   16.318969   23.438586 H          1 MOL1         0.0754
@<TRIPOS>BOND
    1     1     2    1
    2     1     3    2
    3     1     4    1
    4     4     5    1
    5     4     6    1
    6     4     7    1
    7     7     8    1
    8     7     9    1
    9     7    10    1
   10    10    11    1
   11    10    12    1
   12    10    13    1
   13    13    14    1
   14    13    15    1
   15    13    16    1
   16    16    17    1
   17    16    18    1
   18    16    19    1
   19    19    20    1
   20    19    21    1
   21    19    22    1
@<TRIPOS>SUBSTRUCTURE
       1 MOL1            1 RESIDUE      1      MOL     
@<SCITEGIC>MOL_PROPERTY
VConf Rank
SciTegic.value.IntegerValue
343

@<SCITEGIC>MOL_PROPERTY
Conf_Id
SciTegic.value.IntegerValue
37

@<SCITEGIC>MOL_PROPERTY
Delta U+W
SciTegic.value.DoubleValue
-0.345

@<SCITEGIC>MOL_PROPERTY
U+W
SciTegic.value.DoubleValue
-53.504

@<SCITEGIC>MOL_PROPERTY
Grad RMS
SciTegic.value.DoubleValue
0.000000

@<SCITEGIC>MOL_PROPERTY
U
SciTegic.value.DoubleValue
6.751

@<SCITEGIC>MOL_PROPERTY
W
SciTegic.value.DoubleValue
-60.255

@<SCITEGIC>MOL_PROPERTY
W(PB)
SciTegic.value.DoubleValue
-62.592

@<SCITEGIC>MOL_PROPERTY
W(SA)
SciTegic.value.DoubleValue
2.336

@<SCITEGIC>MOL_PROPERTY
Valence
SciTegic.value.DoubleValue
7.602

@<SCITEGIC>MOL_PROPERTY
Coulomb
SciTegic.value.DoubleValue
-1.744

@<SCITEGIC>MOL_PROPERTY
VdW
SciTegic.value.DoubleValue
0.894

@<SCITEGIC>MOL_PROPERTY
VdW6
SciTegic.value.DoubleValue
-7.110

@<SCITEGIC>MOL_PROPERTY
VdW12
SciTegic.value.DoubleValue
8.004

@<SCITEGIC>MOL_PROPERTY
Bond
SciTegic.value.DoubleValue
0.131

@<SCITEGIC>MOL_PROPERTY
Angle
SciTegic.value.DoubleValue
2.489

@<SCITEGIC>MOL_PROPERTY
Pdih
SciTegic.value.DoubleValue
4.982

@<SCITEGIC>MOL_PROPERTY
Idih
SciTegic.value.DoubleValue
0.001

@<SCITEGIC>MOL_PROPERTY
Tether
SciTegic.value.DoubleValue
0.000

@<TRIPOS>MOLECULE
guest-s21_confgen4.mol2 : confsearch ligand conformer 344
          22          21           1
SMALL
USER_CHARGES
 
@<TRIPOS>ATOM
       1    C1      21.335851   20.354529   25.518270 C.2        1 MOL1         0.6145
       2    O1      21.270549   19.552257   26.428516 O.co2      1 MOL1        -0.6735
       3    O2      21.372387   21.557843   25.683065 O.co2      1 MOL1        -0.6735
       4    C2      21.350927   19.822747   24.089567 C.3        1 MOL1        -0.1985
       5    H1      21.865762   18.854451   24.091832 H          1 MOL1         0.0740
       6    H2      21.950445   20.507252   23.477459 H          1 MOL1         0.0740
       7    C3      19.931728   19.672074   23.488461 C.3        1 MOL1        -0.1882
       8    H3      19.340477   18.993793   24.119258 H          1 MOL1         0.0742
       9    H4      19.425180   20.647066   23.506056 H          1 MOL1         0.0742
      10    C4      19.974229   19.132577   22.042263 C.3        1 MOL1        -0.1880
      11    H5      20.488272   18.162589   22.035121 H          1 MOL1         0.0742
      12    H6      20.563951   19.813673   21.413621 H          1 MOL1         0.0742
      13    C5      18.555023   18.980324   21.448179 C.3        1 MOL1        -0.1880
      14    H7      17.978823   18.260529   22.045529 H          1 MOL1         0.0742
      15    H8      18.029344   19.941738   21.527426 H          1 MOL1         0.0742
      16    C6      18.553024   18.540644   19.965618 C.3        1 MOL1        -0.1856
      17    H9      19.123134   19.261850   19.363833 H          1 MOL1         0.0742
      18    H10     17.520770   18.571039   19.590435 H          1 MOL1         0.0742
      19    C7      19.118989   17.120546   19.748326 C.3        1 MOL1        -0.2871
      20    H11     18.583483   16.385750   20.363504 H          1 MOL1         0.0754
      21    H12     20.185232   17.070902   20.002031 H          1 MOL1         0.0754
      22    H13     19.013647   16.822176   18.697232 H          1 MOL1         0.0754
@<TRIPOS>BOND
    1     1     2    1
    2     1     3    2
    3     1     4    1
    4     4     5    1
    5     4     6    1
    6     4     7    1
    7     7     8    1
    8     7     9    1
    9     7    10    1
   10    10    11    1
   11    10    12    1
   12    10    13    1
   13    13    14    1
   14    13    15    1
   15    13    16    1
   16    16    17    1
   17    16    18    1
   18    16    19    1
   19    19    20    1
   20    19    21    1
   21    19    22    1
@<TRIPOS>SUBSTRUCTURE
       1 MOL1            1 RESIDUE      1      MOL     
@<SCITEGIC>MOL_PROPERTY
VConf Rank
SciTegic.value.IntegerValue
344

@<SCITEGIC>MOL_PROPERTY
Conf_Id
SciTegic.value.IntegerValue
38

@<SCITEGIC>MOL_PROPERTY
Delta U+W
SciTegic.value.DoubleValue
-0.439

@<SCITEGIC>MOL_PROPERTY
U+W
SciTegic.value.DoubleValue
-53.598

@<SCITEGIC>MOL_PROPERTY
Grad RMS
SciTegic.value.DoubleValue
0.000000

@<SCITEGIC>MOL_PROPERTY
U
SciTegic.value.DoubleValue
6.751

@<SCITEGIC>MOL_PROPERTY
W
SciTegic.value.DoubleValue
-60.350

@<SCITEGIC>MOL_PROPERTY
W(PB)
SciTegic.value.DoubleValue
-62.659

@<SCITEGIC>MOL_PROPERTY
W(SA)
SciTegic.value.DoubleValue
2.309

@<SCITEGIC>MOL_PROPERTY
Valence
SciTegic.value.DoubleValue
7.602

@<SCITEGIC>MOL_PROPERTY
Coulomb
SciTegic.value.DoubleValue
-1.744

@<SCITEGIC>MOL_PROPERTY
VdW
SciTegic.value.DoubleValue
0.893

@<SCITEGIC>MOL_PROPERTY
VdW6
SciTegic.value.DoubleValue
-7.110

@<SCITEGIC>MOL_PROPERTY
VdW12
SciTegic.value.DoubleValue
8.004

@<SCITEGIC>MOL_PROPERTY
Bond
SciTegic.value.DoubleValue
0.131

@<SCITEGIC>MOL_PROPERTY
Angle
SciTegic.value.DoubleValue
2.489

@<SCITEGIC>MOL_PROPERTY
Pdih
SciTegic.value.DoubleValue
4.981

@<SCITEGIC>MOL_PROPERTY
Idih
SciTegic.value.DoubleValue
0.001

@<SCITEGIC>MOL_PROPERTY
Tether
SciTegic.value.DoubleValue
0.000

@<TRIPOS>MOLECULE
guest-s21_confgen4.mol2 : confsearch ligand conformer 345
          22          21           1
SMALL
USER_CHARGES
 
@<TRIPOS>ATOM
       1    C1      20.184483   16.127604   24.631044 C.2        1 MOL1         0.6145
       2    O1      19.349773   15.251740   24.743658 O.co2      1 MOL1        -0.6735
       3    O2      21.007661   16.386361   25.486588 O.co2      1 MOL1        -0.6735
       4    C2      20.184282   16.962660   23.355516 C.3        1 MOL1        -0.1985
       5    H1      19.842750   16.324734   22.531609 H          1 MOL1         0.0740
       6    H2      21.221610   17.243215   23.141743 H          1 MOL1         0.0740
       7    C3      19.286523   18.222759   23.464089 C.3        1 MOL1        -0.1882
       8    H3      18.279771   17.910613   23.774672 H          1 MOL1         0.0742
       9    H4      19.666960   18.877764   24.260035 H          1 MOL1         0.0742
      10    C4      19.170962   19.018728   22.142045 C.3        1 MOL1        -0.1880
      11    H5      18.411510   19.798661   22.280839 H          1 MOL1         0.0742
      12    H6      18.798446   18.358968   21.346672 H          1 MOL1         0.0742
      13    C5      20.503256   19.671620   21.698484 C.3        1 MOL1        -0.1880
      14    H7      20.876558   20.329964   22.494682 H          1 MOL1         0.0742
      15    H8      21.262806   18.892539   21.556368 H          1 MOL1         0.0742
      16    C6      20.386226   20.470695   20.379432 C.3        1 MOL1        -0.1856
      17    H9      20.002105   19.818447   19.582992 H          1 MOL1         0.0742
      18    H10     21.392576   20.781736   20.066766 H          1 MOL1         0.0742
      19    C7      19.495399   21.726414   20.498807 C.3        1 MOL1        -0.2871
      20    H11     18.448718   21.459829   20.690686 H          1 MOL1         0.0754
      21    H12     19.524016   22.306595   19.567416 H          1 MOL1         0.0754
      22    H13     19.840567   22.377190   21.312732 H          1 MOL1         0.0754
@<TRIPOS>BOND
    1     1     2    1
    2     1     3    2
    3     1     4    1
    4     4     5    1
    5     4     6    1
    6     4     7    1
    7     7     8    1
    8     7     9    1
    9     7    10    1
   10    10    11    1
   11    10    12    1
   12    10    13    1
   13    13    14    1
   14    13    15    1
   15    13    16    1
   16    16    17    1
   17    16    18    1
   18    16    19    1
   19    19    20    1
   20    19    21    1
   21    19    22    1
@<TRIPOS>SUBSTRUCTURE
       1 MOL1            1 RESIDUE      1      MOL     
@<SCITEGIC>MOL_PROPERTY
VConf Rank
SciTegic.value.IntegerValue
345

@<SCITEGIC>MOL_PROPERTY
Conf_Id
SciTegic.value.IntegerValue
60

@<SCITEGIC>MOL_PROPERTY
Delta U+W
SciTegic.value.DoubleValue
0.386

@<SCITEGIC>MOL_PROPERTY
U+W
SciTegic.value.DoubleValue
-52.773

@<SCITEGIC>MOL_PROPERTY
Grad RMS
SciTegic.value.DoubleValue
0.000000

@<SCITEGIC>MOL_PROPERTY
U
SciTegic.value.DoubleValue
7.689

@<SCITEGIC>MOL_PROPERTY
W
SciTegic.value.DoubleValue
-60.463

@<SCITEGIC>MOL_PROPERTY
W(PB)
SciTegic.value.DoubleValue
-62.772

@<SCITEGIC>MOL_PROPERTY
W(SA)
SciTegic.value.DoubleValue
2.309

@<SCITEGIC>MOL_PROPERTY
Valence
SciTegic.value.DoubleValue
8.197

@<SCITEGIC>MOL_PROPERTY
Coulomb
SciTegic.value.DoubleValue
-1.561

@<SCITEGIC>MOL_PROPERTY
VdW
SciTegic.value.DoubleValue
1.053

@<SCITEGIC>MOL_PROPERTY
VdW6
SciTegic.value.DoubleValue
-7.737

@<SCITEGIC>MOL_PROPERTY
VdW12
SciTegic.value.DoubleValue
8.790

@<SCITEGIC>MOL_PROPERTY
Bond
SciTegic.value.DoubleValue
0.181

@<SCITEGIC>MOL_PROPERTY
Angle
SciTegic.value.DoubleValue
2.780

@<SCITEGIC>MOL_PROPERTY
Pdih
SciTegic.value.DoubleValue
5.235

@<SCITEGIC>MOL_PROPERTY
Idih
SciTegic.value.DoubleValue
0.001

@<SCITEGIC>MOL_PROPERTY
Tether
SciTegic.value.DoubleValue
0.000

@<TRIPOS>MOLECULE
guest-s21_confgen4.mol2 : confsearch ligand conformer 346
          22          21           1
SMALL
USER_CHARGES
 
@<TRIPOS>ATOM
       1    C1      22.646988   20.326497   24.340660 C.2        1 MOL1         0.6145
       2    O1      23.672744   19.709994   24.130227 O.co2      1 MOL1        -0.6735
       3    O2      22.468652   21.020727   25.321885 O.co2      1 MOL1        -0.6735
       4    C2      21.512746   20.204398   23.329287 C.3        1 MOL1        -0.1985
       5    H1      21.963072   20.085983   22.337497 H          1 MOL1         0.0740
       6    H2      20.958151   21.150346   23.324610 H          1 MOL1         0.0740
       7    C3      20.555595   19.024563   23.641480 C.3        1 MOL1        -0.1882
       8    H3      21.111562   18.077961   23.595210 H          1 MOL1         0.0742
       9    H4      20.200796   19.125035   24.676599 H          1 MOL1         0.0742
      10    C4      19.327222   18.956292   22.702779 C.3        1 MOL1        -0.1880
      11    H5      18.778409   19.906909   22.745210 H          1 MOL1         0.0742
      12    H6      18.647160   18.186601   23.089327 H          1 MOL1         0.0742
      13    C5      19.692681   18.628765   21.234044 C.3        1 MOL1        -0.1880
      14    H7      20.370216   19.399372   20.845212 H          1 MOL1         0.0742
      15    H8      20.243145   17.679069   21.191969 H          1 MOL1         0.0742
      16    C6      18.464234   18.556168   20.297156 C.3        1 MOL1        -0.1856
      17    H9      18.817735   18.457893   19.261480 H          1 MOL1         0.0742
      18    H10     17.904330   19.500359   20.345144 H          1 MOL1         0.0742
      19    C7      17.520665   17.374901   20.611703 C.3        1 MOL1        -0.2871
      20    H11     18.066835   16.422665   20.603329 H          1 MOL1         0.0754
      21    H12     16.721607   17.312411   19.861689 H          1 MOL1         0.0754
      22    H13     17.044909   17.490973   21.593339 H          1 MOL1         0.0754
@<TRIPOS>BOND
    1     1     2    1
    2     1     3    2
    3     1     4    1
    4     4     5    1
    5     4     6    1
    6     4     7    1
    7     7     8    1
    8     7     9    1
    9     7    10    1
   10    10    11    1
   11    10    12    1
   12    10    13    1
   13    13    14    1
   14    13    15    1
   15    13    16    1
   16    16    17    1
   17    16    18    1
   18    16    19    1
   19    19    20    1
   20    19    21    1
   21    19    22    1
@<TRIPOS>SUBSTRUCTURE
       1 MOL1            1 RESIDUE      1      MOL     
@<SCITEGIC>MOL_PROPERTY
VConf Rank
SciTegic.value.IntegerValue
346

@<SCITEGIC>MOL_PROPERTY
Conf_Id
SciTegic.value.IntegerValue
28

@<SCITEGIC>MOL_PROPERTY
Delta U+W
SciTegic.value.DoubleValue
0.351

@<SCITEGIC>MOL_PROPERTY
U+W
SciTegic.value.DoubleValue
-52.808

@<SCITEGIC>MOL_PROPERTY
Grad RMS
SciTegic.value.DoubleValue
0.000000

@<SCITEGIC>MOL_PROPERTY
U
SciTegic.value.DoubleValue
7.689

@<SCITEGIC>MOL_PROPERTY
W
SciTegic.value.DoubleValue
-60.498

@<SCITEGIC>MOL_PROPERTY
W(PB)
SciTegic.value.DoubleValue
-62.768

@<SCITEGIC>MOL_PROPERTY
W(SA)
SciTegic.value.DoubleValue
2.270

@<SCITEGIC>MOL_PROPERTY
Valence
SciTegic.value.DoubleValue
8.197

@<SCITEGIC>MOL_PROPERTY
Coulomb
SciTegic.value.DoubleValue
-1.561

@<SCITEGIC>MOL_PROPERTY
VdW
SciTegic.value.DoubleValue
1.053

@<SCITEGIC>MOL_PROPERTY
VdW6
SciTegic.value.DoubleValue
-7.737

@<SCITEGIC>MOL_PROPERTY
VdW12
SciTegic.value.DoubleValue
8.791

@<SCITEGIC>MOL_PROPERTY
Bond
SciTegic.value.DoubleValue
0.181

@<SCITEGIC>MOL_PROPERTY
Angle
SciTegic.value.DoubleValue
2.780

@<SCITEGIC>MOL_PROPERTY
Pdih
SciTegic.value.DoubleValue
5.235

@<SCITEGIC>MOL_PROPERTY
Idih
SciTegic.value.DoubleValue
0.001

@<SCITEGIC>MOL_PROPERTY
Tether
SciTegic.value.DoubleValue
0.000

@<TRIPOS>MOLECULE
guest-s21_confgen4.mol2 : confsearch ligand conformer 347
          22          21           1
SMALL
USER_CHARGES
 
@<TRIPOS>ATOM
       1    C1      17.249788   16.435230   23.180094 C.2        1 MOL1         0.6145
       2    O1      16.358710   16.834561   23.903271 O.co2      1 MOL1        -0.6735
       3    O2      17.064179   15.719990   22.215502 O.co2      1 MOL1        -0.6735
       4    C2      18.677525   16.872037   23.488458 C.3        1 MOL1        -0.1985
       5    H1      19.354288   16.064837   23.183385 H          1 MOL1         0.0740
       6    H2      18.772754   16.981775   24.575429 H          1 MOL1         0.0740
       7    C3      19.068667   18.192811   22.780751 C.3        1 MOL1        -0.1882
       8    H3      18.945957   18.064251   21.697292 H          1 MOL1         0.0742
       9    H4      18.376682   18.988453   23.089646 H          1 MOL1         0.0742
      10    C4      20.521656   18.609391   23.106856 C.3        1 MOL1        -0.1880
      11    H5      21.217564   17.837589   22.750453 H          1 MOL1         0.0742
      12    H6      20.642849   18.657390   24.197714 H          1 MOL1         0.0742
      13    C5      20.918620   19.980159   22.509381 C.3        1 MOL1        -0.1880
      14    H7      20.225395   20.752959   22.868756 H          1 MOL1         0.0742
      15    H8      21.911918   20.251980   22.892004 H          1 MOL1         0.0742
      16    C6      20.956246   19.991767   20.964473 C.3        1 MOL1        -0.1856
      17    H9      19.953944   19.799132   20.559947 H          1 MOL1         0.0742
      18    H10     21.608648   19.184752   20.603496 H          1 MOL1         0.0742
      19    C7      21.464558   21.342537   20.421561 C.3        1 MOL1        -0.2871
      20    H11     22.482728   21.550719   20.775603 H          1 MOL1         0.0754
      21    H12     20.813830   22.165436   20.745251 H          1 MOL1         0.0754
      22    H13     21.482392   21.336136   19.323968 H          1 MOL1         0.0754
@<TRIPOS>BOND
    1     1     2    1
    2     1     3    2
    3     1     4    1
    4     4     5    1
    5     4     6    1
    6     4     7    1
    7     7     8    1
    8     7     9    1
    9     7    10    1
   10    10    11    1
   11    10    12    1
   12    10    13    1
   13    13    14    1
   14    13    15    1
   15    13    16    1
   16    16    17    1
   17    16    18    1
   18    16    19    1
   19    19    20    1
   20    19    21    1
   21    19    22    1
@<TRIPOS>SUBSTRUCTURE
       1 MOL1            1 RESIDUE      1      MOL     
@<SCITEGIC>MOL_PROPERTY
VConf Rank
SciTegic.value.IntegerValue
347

@<SCITEGIC>MOL_PROPERTY
Conf_Id
SciTegic.value.IntegerValue
50

@<SCITEGIC>MOL_PROPERTY
Delta U+W
SciTegic.value.DoubleValue
-0.486

@<SCITEGIC>MOL_PROPERTY
U+W
SciTegic.value.DoubleValue
-53.646

@<SCITEGIC>MOL_PROPERTY
Grad RMS
SciTegic.value.DoubleValue
0.000000

@<SCITEGIC>MOL_PROPERTY
U
SciTegic.value.DoubleValue
7.026

@<SCITEGIC>MOL_PROPERTY
W
SciTegic.value.DoubleValue
-60.672

@<SCITEGIC>MOL_PROPERTY
W(PB)
SciTegic.value.DoubleValue
-62.964

@<SCITEGIC>MOL_PROPERTY
W(SA)
SciTegic.value.DoubleValue
2.292

@<SCITEGIC>MOL_PROPERTY
Valence
SciTegic.value.DoubleValue
7.637

@<SCITEGIC>MOL_PROPERTY
Coulomb
SciTegic.value.DoubleValue
-1.488

@<SCITEGIC>MOL_PROPERTY
VdW
SciTegic.value.DoubleValue
0.877

@<SCITEGIC>MOL_PROPERTY
VdW6
SciTegic.value.DoubleValue
-7.165

@<SCITEGIC>MOL_PROPERTY
VdW12
SciTegic.value.DoubleValue
8.043

@<SCITEGIC>MOL_PROPERTY
Bond
SciTegic.value.DoubleValue
0.134

@<SCITEGIC>MOL_PROPERTY
Angle
SciTegic.value.DoubleValue
2.513

@<SCITEGIC>MOL_PROPERTY
Pdih
SciTegic.value.DoubleValue
4.990

@<SCITEGIC>MOL_PROPERTY
Idih
SciTegic.value.DoubleValue
0.001

@<SCITEGIC>MOL_PROPERTY
Tether
SciTegic.value.DoubleValue
0.000

@<TRIPOS>MOLECULE
guest-s21_confgen4.mol2 : confsearch ligand conformer 348
          22          21           1
SMALL
USER_CHARGES
 
@<TRIPOS>ATOM
       1    C1      16.127041   18.141296   22.616917 C.2        1 MOL1         0.6145
       2    O1      15.862925   17.160508   23.283827 O.co2      1 MOL1        -0.6735
       3    O2      15.580120   18.407056   21.564917 O.co2      1 MOL1        -0.6735
       4    C2      17.219441   19.079524   23.117637 C.3        1 MOL1        -0.1985
       5    H1      17.199394   19.070944   24.214059 H          1 MOL1         0.0740
       6    H2      16.967918   20.097509   22.796557 H          1 MOL1         0.0740
       7    C3      18.628059   18.690675   22.604911 C.3        1 MOL1        -0.1882
       8    H3      18.861122   17.666284   22.926790 H          1 MOL1         0.0742
       9    H4      18.617131   18.686884   21.507034 H          1 MOL1         0.0742
      10    C4      19.714872   19.660570   23.123765 C.3        1 MOL1        -0.1880
      11    H5      19.657458   19.707462   24.219880 H          1 MOL1         0.0742
      12    H6      19.510675   20.676229   22.758076 H          1 MOL1         0.0742
      13    C5      21.151421   19.246191   22.726051 C.3        1 MOL1        -0.1880
      14    H7      21.859818   19.912353   23.237255 H          1 MOL1         0.0742
      15    H8      21.357434   18.232100   23.094983 H          1 MOL1         0.0742
      16    C6      21.412494   19.309934   21.204188 C.3        1 MOL1        -0.1856
      17    H9      21.156202   20.309050   20.825654 H          1 MOL1         0.0742
      18    H10     20.767826   18.592916   20.679165 H          1 MOL1         0.0742
      19    C7      22.885097   18.997993   20.869746 C.3        1 MOL1        -0.2871
      20    H11     23.160981   17.992400   21.213339 H          1 MOL1         0.0754
      21    H12     23.558779   19.720858   21.348258 H          1 MOL1         0.0754
      22    H13     23.053659   19.044019   19.785985 H          1 MOL1         0.0754
@<TRIPOS>BOND
    1     1     2    1
    2     1     3    2
    3     1     4    1
    4     4     5    1
    5     4     6    1
    6     4     7    1
    7     7     8    1
    8     7     9    1
    9     7    10    1
   10    10    11    1
   11    10    12    1
   12    10    13    1
   13    13    14    1
   14    13    15    1
   15    13    16    1
   16    16    17    1
   17    16    18    1
   18    16    19    1
   19    19    20    1
   20    19    21    1
   21    19    22    1
@<TRIPOS>SUBSTRUCTURE
       1 MOL1            1 RESIDUE      1      MOL     
@<SCITEGIC>MOL_PROPERTY
VConf Rank
SciTegic.value.IntegerValue
348

@<SCITEGIC>MOL_PROPERTY
Conf_Id
SciTegic.value.IntegerValue
51

@<SCITEGIC>MOL_PROPERTY
Delta U+W
SciTegic.value.DoubleValue
-0.517

@<SCITEGIC>MOL_PROPERTY
U+W
SciTegic.value.DoubleValue
-53.677

@<SCITEGIC>MOL_PROPERTY
Grad RMS
SciTegic.value.DoubleValue
0.000000

@<SCITEGIC>MOL_PROPERTY
U
SciTegic.value.DoubleValue
7.026

@<SCITEGIC>MOL_PROPERTY
W
SciTegic.value.DoubleValue
-60.703

@<SCITEGIC>MOL_PROPERTY
W(PB)
SciTegic.value.DoubleValue
-63.007

@<SCITEGIC>MOL_PROPERTY
W(SA)
SciTegic.value.DoubleValue
2.304

@<SCITEGIC>MOL_PROPERTY
Valence
SciTegic.value.DoubleValue
7.638

@<SCITEGIC>MOL_PROPERTY
Coulomb
SciTegic.value.DoubleValue
-1.488

@<SCITEGIC>MOL_PROPERTY
VdW
SciTegic.value.DoubleValue
0.877

@<SCITEGIC>MOL_PROPERTY
VdW6
SciTegic.value.DoubleValue
-7.165

@<SCITEGIC>MOL_PROPERTY
VdW12
SciTegic.value.DoubleValue
8.042

@<SCITEGIC>MOL_PROPERTY
Bond
SciTegic.value.DoubleValue
0.134

@<SCITEGIC>MOL_PROPERTY
Angle
SciTegic.value.DoubleValue
2.513

@<SCITEGIC>MOL_PROPERTY
Pdih
SciTegic.value.DoubleValue
4.990

@<SCITEGIC>MOL_PROPERTY
Idih
SciTegic.value.DoubleValue
0.001

@<SCITEGIC>MOL_PROPERTY
Tether
SciTegic.value.DoubleValue
0.000

@<TRIPOS>MOLECULE
guest-s21_confgen4.mol2 : confsearch ligand conformer 349
          22          21           1
SMALL
USER_CHARGES
 
@<TRIPOS>ATOM
       1    C1      16.870999   17.435236   22.936583 C.2        1 MOL1         0.6145
       2    O1      16.423186   16.856075   21.966563 O.co2      1 MOL1        -0.6735
       3    O2      17.122493   16.885734   23.990902 O.co2      1 MOL1        -0.6735
       4    C2      17.112127   18.938338   22.828537 C.3        1 MOL1        -0.1985
       5    H1      17.176258   19.356380   23.840483 H          1 MOL1         0.0740
       6    H2      16.225432   19.379731   22.358444 H          1 MOL1         0.0740
       7    C3      18.374499   19.317540   22.011460 C.3        1 MOL1        -0.1882
       8    H3      18.308642   18.868550   21.010598 H          1 MOL1         0.0742
       9    H4      18.392916   20.406516   21.868856 H          1 MOL1         0.0742
      10    C4      19.684024   18.871750   22.699936 C.3        1 MOL1        -0.1880
      11    H5      19.680608   17.780739   22.830669 H          1 MOL1         0.0742
      12    H6      19.738755   19.312545   23.704784 H          1 MOL1         0.0742
      13    C5      20.928135   19.286811   21.885465 C.3        1 MOL1        -0.1880
      14    H7      20.872682   18.845609   20.880790 H          1 MOL1         0.0742
      15    H8      20.935351   20.377774   21.755822 H          1 MOL1         0.0742
      16    C6      22.236265   18.841274   22.572008 C.3        1 MOL1        -0.1856
      17    H9      22.233405   17.750102   22.701763 H          1 MOL1         0.0742
      18    H10     22.296056   19.282081   23.576785 H          1 MOL1         0.0742
      19    C7      23.476401   19.256905   21.755510 C.3        1 MOL1        -0.2871
      20    H11     23.458175   18.803915   20.755576 H          1 MOL1         0.0754
      21    H12     24.396924   18.932336   22.257882 H          1 MOL1         0.0754
      22    H13     23.521297   20.347486   21.637136 H          1 MOL1         0.0754
@<TRIPOS>BOND
    1     1     2    1
    2     1     3    2
    3     1     4    1
    4     4     5    1
    5     4     6    1
    6     4     7    1
    7     7     8    1
    8     7     9    1
    9     7    10    1
   10    10    11    1
   11    10    12    1
   12    10    13    1
   13    13    14    1
   14    13    15    1
   15    13    16    1
   16    16    17    1
   17    16    18    1
   18    16    19    1
   19    19    20    1
   20    19    21    1
   21    19    22    1
@<TRIPOS>SUBSTRUCTURE
       1 MOL1            1 RESIDUE      1      MOL     
@<SCITEGIC>MOL_PROPERTY
VConf Rank
SciTegic.value.IntegerValue
349

@<SCITEGIC>MOL_PROPERTY
Conf_Id
SciTegic.value.IntegerValue
43

@<SCITEGIC>MOL_PROPERTY
Delta U+W
SciTegic.value.DoubleValue
-0.129

@<SCITEGIC>MOL_PROPERTY
U+W
SciTegic.value.DoubleValue
-53.289

@<SCITEGIC>MOL_PROPERTY
Grad RMS
SciTegic.value.DoubleValue
0.000000

@<SCITEGIC>MOL_PROPERTY
U
SciTegic.value.DoubleValue
7.937

@<SCITEGIC>MOL_PROPERTY
W
SciTegic.value.DoubleValue
-61.225

@<SCITEGIC>MOL_PROPERTY
W(PB)
SciTegic.value.DoubleValue
-63.523

@<SCITEGIC>MOL_PROPERTY
W(SA)
SciTegic.value.DoubleValue
2.297

@<SCITEGIC>MOL_PROPERTY
Valence
SciTegic.value.DoubleValue
7.358

@<SCITEGIC>MOL_PROPERTY
Coulomb
SciTegic.value.DoubleValue
-0.022

@<SCITEGIC>MOL_PROPERTY
VdW
SciTegic.value.DoubleValue
0.601

@<SCITEGIC>MOL_PROPERTY
VdW6
SciTegic.value.DoubleValue
-7.363

@<SCITEGIC>MOL_PROPERTY
VdW12
SciTegic.value.DoubleValue
7.964

@<SCITEGIC>MOL_PROPERTY
Bond
SciTegic.value.DoubleValue
0.121

@<SCITEGIC>MOL_PROPERTY
Angle
SciTegic.value.DoubleValue
2.425

@<SCITEGIC>MOL_PROPERTY
Pdih
SciTegic.value.DoubleValue
4.811

@<SCITEGIC>MOL_PROPERTY
Idih
SciTegic.value.DoubleValue
0.000

@<SCITEGIC>MOL_PROPERTY
Tether
SciTegic.value.DoubleValue
0.000

@<TRIPOS>MOLECULE
guest-s21_confgen4.mol2 : confsearch ligand conformer 350
          22          21           1
SMALL
USER_CHARGES
 
@<TRIPOS>ATOM
       1    C1      22.518345   18.234748   24.184910 C.2        1 MOL1         0.6145
       2    O1      22.935614   17.120625   23.936877 O.co2      1 MOL1        -0.6735
       3    O2      22.124280   18.576174   25.282605 O.co2      1 MOL1        -0.6735
       4    C2      22.506668   19.265200   23.059227 C.3        1 MOL1        -0.1985
       5    H1      23.475685   19.205371   22.549847 H          1 MOL1         0.0740
       6    H2      22.441971   20.266622   23.501799 H          1 MOL1         0.0740
       7    C3      21.366192   19.060517   22.028490 C.3        1 MOL1        -0.1882
       8    H3      21.516003   19.752896   21.189020 H          1 MOL1         0.0742
       9    H4      21.427414   18.044176   21.615023 H          1 MOL1         0.0742
      10    C4      19.965560   19.294187   22.637764 C.3        1 MOL1        -0.1880
      11    H5      19.913870   20.306614   23.061243 H          1 MOL1         0.0742
      12    H6      19.801378   18.593164   23.467836 H          1 MOL1         0.0742
      13    C5      18.848206   19.116077   21.587406 C.3        1 MOL1        -0.1880
      14    H7      19.008566   19.818049   20.757599 H          1 MOL1         0.0742
      15    H8      18.900533   18.103421   21.164442 H          1 MOL1         0.0742
      16    C6      17.449109   19.348523   22.195310 C.3        1 MOL1        -0.1856
      17    H9      17.392439   20.361237   22.617995 H          1 MOL1         0.0742
      18    H10     17.284405   18.646748   23.024700 H          1 MOL1         0.0742
      19    C7      16.335885   19.169196   21.143678 C.3        1 MOL1        -0.2871
      20    H11     16.458282   19.881067   20.316844 H          1 MOL1         0.0754
      21    H12     15.348548   19.337967   21.592862 H          1 MOL1         0.0754
      22    H13     16.349435   18.153657   20.726667 H          1 MOL1         0.0754
@<TRIPOS>BOND
    1     1     2    1
    2     1     3    2
    3     1     4    1
    4     4     5    1
    5     4     6    1
    6     4     7    1
    7     7     8    1
    8     7     9    1
    9     7    10    1
   10    10    11    1
   11    10    12    1
   12    10    13    1
   13    13    14    1
   14    13    15    1
   15    13    16    1
   16    16    17    1
   17    16    18    1
   18    16    19    1
   19    19    20    1
   20    19    21    1
   21    19    22    1
@<TRIPOS>SUBSTRUCTURE
       1 MOL1            1 RESIDUE      1      MOL     
@<SCITEGIC>MOL_PROPERTY
VConf Rank
SciTegic.value.IntegerValue
350

@<SCITEGIC>MOL_PROPERTY
Conf_Id
SciTegic.value.IntegerValue
44

@<SCITEGIC>MOL_PROPERTY
Delta U+W
SciTegic.value.DoubleValue
-0.155

@<SCITEGIC>MOL_PROPERTY
U+W
SciTegic.value.DoubleValue
-53.314

@<SCITEGIC>MOL_PROPERTY
Grad RMS
SciTegic.value.DoubleValue
0.000000

@<SCITEGIC>MOL_PROPERTY
U
SciTegic.value.DoubleValue
7.937

@<SCITEGIC>MOL_PROPERTY
W
SciTegic.value.DoubleValue
-61.252

@<SCITEGIC>MOL_PROPERTY
W(PB)
SciTegic.value.DoubleValue
-63.556

@<SCITEGIC>MOL_PROPERTY
W(SA)
SciTegic.value.DoubleValue
2.304

@<SCITEGIC>MOL_PROPERTY
Valence
SciTegic.value.DoubleValue
7.358

@<SCITEGIC>MOL_PROPERTY
Coulomb
SciTegic.value.DoubleValue
-0.021

@<SCITEGIC>MOL_PROPERTY
VdW
SciTegic.value.DoubleValue
0.600

@<SCITEGIC>MOL_PROPERTY
VdW6
SciTegic.value.DoubleValue
-7.363

@<SCITEGIC>MOL_PROPERTY
VdW12
SciTegic.value.DoubleValue
7.964

@<SCITEGIC>MOL_PROPERTY
Bond
SciTegic.value.DoubleValue
0.121

@<SCITEGIC>MOL_PROPERTY
Angle
SciTegic.value.DoubleValue
2.425

@<SCITEGIC>MOL_PROPERTY
Pdih
SciTegic.value.DoubleValue
4.811

@<SCITEGIC>MOL_PROPERTY
Idih
SciTegic.value.DoubleValue
0.001

@<SCITEGIC>MOL_PROPERTY
Tether
SciTegic.value.DoubleValue
0.000

@<TRIPOS>MOLECULE
guest-s21_confgen4.mol2 : confsearch ligand conformer 351
          22          21           1
SMALL
USER_CHARGES
 
@<TRIPOS>ATOM
       1    C1      17.132718   20.960607   23.700503 C.2        1 MOL1         0.6145
       2    O1      17.131606   22.091626   23.255847 O.co2      1 MOL1        -0.6735
       3    O2      17.084557   20.705006   24.887607 O.co2      1 MOL1        -0.6735
       4    C2      17.177772   19.799057   22.711522 C.3        1 MOL1        -0.1985
       5    H1      16.449487   20.014483   21.920811 H          1 MOL1         0.0740
       6    H2      16.833522   18.890983   23.221210 H          1 MOL1         0.0740
       7    C3      18.573501   19.561027   22.078350 C.3        1 MOL1        -0.1882
       8    H3      18.469349   18.818419   21.277195 H          1 MOL1         0.0742
       9    H4      18.922340   20.490237   21.606882 H          1 MOL1         0.0742
      10    C4      19.618062   19.071887   23.110264 C.3        1 MOL1        -0.1880
      11    H5      19.287670   18.120928   23.549946 H          1 MOL1         0.0742
      12    H6      19.672053   19.792577   23.937719 H          1 MOL1         0.0742
      13    C5      21.037800   18.904213   22.518611 C.3        1 MOL1        -0.1880
      14    H7      21.367699   19.855365   22.078844 H          1 MOL1         0.0742
      15    H8      21.732877   18.684821   23.340583 H          1 MOL1         0.0742
      16    C6      21.138771   17.779185   21.463840 C.3        1 MOL1        -0.1856
      17    H9      20.512008   18.017527   20.594602 H          1 MOL1         0.0742
      18    H10     20.757607   16.839423   21.886634 H          1 MOL1         0.0742
      19    C7      22.592635   17.575673   20.992033 C.3        1 MOL1        -0.2871
      20    H11     22.990444   18.493521   20.539608 H          1 MOL1         0.0754
      21    H12     22.647368   16.776487   20.241455 H          1 MOL1         0.0754
      22    H13     23.243212   17.297102   21.831380 H          1 MOL1         0.0754
@<TRIPOS>BOND
    1     1     2    1
    2     1     3    2
    3     1     4    1
    4     4     5    1
    5     4     6    1
    6     4     7    1
    7     7     8    1
    8     7     9    1
    9     7    10    1
   10    10    11    1
   11    10    12    1
   12    10    13    1
   13    13    14    1
   14    13    15    1
   15    13    16    1
   16    16    17    1
   17    16    18    1
   18    16    19    1
   19    19    20    1
   20    19    21    1
   21    19    22    1
@<TRIPOS>SUBSTRUCTURE
       1 MOL1            1 RESIDUE      1      MOL     
@<SCITEGIC>MOL_PROPERTY
VConf Rank
SciTegic.value.IntegerValue
351

@<SCITEGIC>MOL_PROPERTY
Conf_Id
SciTegic.value.IntegerValue
53

@<SCITEGIC>MOL_PROPERTY
Delta U+W
SciTegic.value.DoubleValue
0.723

@<SCITEGIC>MOL_PROPERTY
U+W
SciTegic.value.DoubleValue
-52.436

@<SCITEGIC>MOL_PROPERTY
Grad RMS
SciTegic.value.DoubleValue
0.000000

@<SCITEGIC>MOL_PROPERTY
U
SciTegic.value.DoubleValue
8.587

@<SCITEGIC>MOL_PROPERTY
W
SciTegic.value.DoubleValue
-61.022

@<SCITEGIC>MOL_PROPERTY
W(PB)
SciTegic.value.DoubleValue
-63.285

@<SCITEGIC>MOL_PROPERTY
W(SA)
SciTegic.value.DoubleValue
2.263

@<SCITEGIC>MOL_PROPERTY
Valence
SciTegic.value.DoubleValue
7.933

@<SCITEGIC>MOL_PROPERTY
Coulomb
SciTegic.value.DoubleValue
-0.124

@<SCITEGIC>MOL_PROPERTY
VdW
SciTegic.value.DoubleValue
0.778

@<SCITEGIC>MOL_PROPERTY
VdW6
SciTegic.value.DoubleValue
-7.981

@<SCITEGIC>MOL_PROPERTY
VdW12
SciTegic.value.DoubleValue
8.759

@<SCITEGIC>MOL_PROPERTY
Bond
SciTegic.value.DoubleValue
0.160

@<SCITEGIC>MOL_PROPERTY
Angle
SciTegic.value.DoubleValue
2.698

@<SCITEGIC>MOL_PROPERTY
Pdih
SciTegic.value.DoubleValue
5.074

@<SCITEGIC>MOL_PROPERTY
Idih
SciTegic.value.DoubleValue
0.001

@<SCITEGIC>MOL_PROPERTY
Tether
SciTegic.value.DoubleValue
0.000

@<TRIPOS>MOLECULE
guest-s21_confgen4.mol2 : confsearch ligand conformer 352
          22          21           1
SMALL
USER_CHARGES
 
@<TRIPOS>ATOM
       1    C1      20.561055   16.949424   19.817665 C.2        1 MOL1         0.6145
       2    O1      20.215691   17.462395   18.771648 O.co2      1 MOL1        -0.6735
       3    O2      21.169475   15.899613   19.883285 O.co2      1 MOL1        -0.6735
       4    C2      20.232621   17.673590   21.118325 C.3        1 MOL1        -0.1985
       5    H1      20.091128   16.919838   21.901982 H          1 MOL1         0.0740
       6    H2      19.275641   18.188606   20.978051 H          1 MOL1         0.0740
       7    C3      21.331103   18.683078   21.537141 C.3        1 MOL1        -0.1882
       8    H3      22.301571   18.167702   21.536008 H          1 MOL1         0.0742
       9    H4      21.402667   19.474493   20.778328 H          1 MOL1         0.0742
      10    C4      21.114774   19.319939   22.932947 C.3        1 MOL1        -0.1880
      11    H5      21.974713   19.973102   23.135012 H          1 MOL1         0.0742
      12    H6      21.140811   18.543828   23.710077 H          1 MOL1         0.0742
      13    C5      19.824030   20.167765   23.062860 C.3        1 MOL1        -0.1880
      14    H7      20.038350   21.031379   23.707243 H          1 MOL1         0.0742
      15    H8      19.542738   20.579542   22.083944 H          1 MOL1         0.0742
      16    C6      18.639214   19.389867   23.680791 C.3        1 MOL1        -0.1856
      17    H9      18.916070   19.033793   24.682668 H          1 MOL1         0.0742
      18    H10     18.408459   18.499296   23.084132 H          1 MOL1         0.0742
      19    C7      17.377686   20.270260   23.784649 C.3        1 MOL1        -0.2871
      20    H11     17.564258   21.152304   24.411164 H          1 MOL1         0.0754
      21    H12     16.548285   19.706604   24.231213 H          1 MOL1         0.0754
      22    H13     17.057648   20.615451   22.792794 H          1 MOL1         0.0754
@<TRIPOS>BOND
    1     1     2    1
    2     1     3    2
    3     1     4    1
    4     4     5    1
    5     4     6    1
    6     4     7    1
    7     7     8    1
    8     7     9    1
    9     7    10    1
   10    10    11    1
   11    10    12    1
   12    10    13    1
   13    13    14    1
   14    13    15    1
   15    13    16    1
   16    16    17    1
   17    16    18    1
   18    16    19    1
   19    19    20    1
   20    19    21    1
   21    19    22    1
@<TRIPOS>SUBSTRUCTURE
       1 MOL1            1 RESIDUE      1      MOL     
@<SCITEGIC>MOL_PROPERTY
VConf Rank
SciTegic.value.IntegerValue
352

@<SCITEGIC>MOL_PROPERTY
Conf_Id
SciTegic.value.IntegerValue
5

@<SCITEGIC>MOL_PROPERTY
Delta U+W
SciTegic.value.DoubleValue
2.167

@<SCITEGIC>MOL_PROPERTY
U+W
SciTegic.value.DoubleValue
-50.993

@<SCITEGIC>MOL_PROPERTY
Grad RMS
SciTegic.value.DoubleValue
0.000000

@<SCITEGIC>MOL_PROPERTY
U
SciTegic.value.DoubleValue
10.045

@<SCITEGIC>MOL_PROPERTY
W
SciTegic.value.DoubleValue
-61.037

@<SCITEGIC>MOL_PROPERTY
W(PB)
SciTegic.value.DoubleValue
-63.303

@<SCITEGIC>MOL_PROPERTY
W(SA)
SciTegic.value.DoubleValue
2.266

@<SCITEGIC>MOL_PROPERTY
Valence
SciTegic.value.DoubleValue
10.100

@<SCITEGIC>MOL_PROPERTY
Coulomb
SciTegic.value.DoubleValue
-0.883

@<SCITEGIC>MOL_PROPERTY
VdW
SciTegic.value.DoubleValue
0.828

@<SCITEGIC>MOL_PROPERTY
VdW6
SciTegic.value.DoubleValue
-8.177

@<SCITEGIC>MOL_PROPERTY
VdW12
SciTegic.value.DoubleValue
9.005

@<SCITEGIC>MOL_PROPERTY
Bond
SciTegic.value.DoubleValue
0.182

@<SCITEGIC>MOL_PROPERTY
Angle
SciTegic.value.DoubleValue
2.988

@<SCITEGIC>MOL_PROPERTY
Pdih
SciTegic.value.DoubleValue
6.930

@<SCITEGIC>MOL_PROPERTY
Idih
SciTegic.value.DoubleValue
0.001

@<SCITEGIC>MOL_PROPERTY
Tether
SciTegic.value.DoubleValue
0.000

@<TRIPOS>MOLECULE
guest-s21_confgen4.mol2 : confsearch ligand conformer 353
          22          21           1
SMALL
USER_CHARGES
 
@<TRIPOS>ATOM
       1    C1      22.714413   17.177425   21.984433 C.2        1 MOL1         0.6145
       2    O1      22.531898   16.032591   22.348594 O.co2      1 MOL1        -0.6735
       3    O2      23.794182   17.605695   21.627687 O.co2      1 MOL1        -0.6735
       4    C2      21.528636   18.135426   21.997411 C.3        1 MOL1        -0.1985
       5    H1      20.631038   17.554605   21.757210 H          1 MOL1         0.0740
       6    H2      21.673404   18.868170   21.194660 H          1 MOL1         0.0740
       7    C3      21.354986   18.857208   23.357565 C.3        1 MOL1        -0.1882
       8    H3      21.131582   18.113719   24.135105 H          1 MOL1         0.0742
       9    H4      22.313469   19.315911   23.637429 H          1 MOL1         0.0742
      10    C4      20.263994   19.957384   23.362225 C.3        1 MOL1        -0.1880
      11    H5      20.530493   20.756214   22.656673 H          1 MOL1         0.0742
      12    H6      20.269510   20.424006   24.356800 H          1 MOL1         0.0742
      13    C5      18.829264   19.445266   23.077626 C.3        1 MOL1        -0.1880
      14    H7      18.731579   18.398807   23.397537 H          1 MOL1         0.0742
      15    H8      18.125659   20.020290   23.695105 H          1 MOL1         0.0742
      16    C6      18.405901   19.598244   21.598397 C.3        1 MOL1        -0.1856
      17    H9      19.100366   19.062511   20.940314 H          1 MOL1         0.0742
      18    H10     18.453756   20.657422   21.310217 H          1 MOL1         0.0742
      19    C7      16.976343   19.071086   21.362173 C.3        1 MOL1        -0.2871
      20    H11     16.905609   18.004224   21.611493 H          1 MOL1         0.0754
      21    H12     16.687997   19.193060   20.310026 H          1 MOL1         0.0754
      22    H13     16.249391   19.616311   21.978292 H          1 MOL1         0.0754
@<TRIPOS>BOND
    1     1     2    1
    2     1     3    2
    3     1     4    1
    4     4     5    1
    5     4     6    1
    6     4     7    1
    7     7     8    1
    8     7     9    1
    9     7    10    1
   10    10    11    1
   11    10    12    1
   12    10    13    1
   13    13    14    1
   14    13    15    1
   15    13    16    1
   16    16    17    1
   17    16    18    1
   18    16    19    1
   19    19    20    1
   20    19    21    1
   21    19    22    1
@<TRIPOS>SUBSTRUCTURE
       1 MOL1            1 RESIDUE      1      MOL     
@<SCITEGIC>MOL_PROPERTY
VConf Rank
SciTegic.value.IntegerValue
353

@<SCITEGIC>MOL_PROPERTY
Conf_Id
SciTegic.value.IntegerValue
6

@<SCITEGIC>MOL_PROPERTY
Delta U+W
SciTegic.value.DoubleValue
2.118

@<SCITEGIC>MOL_PROPERTY
U+W
SciTegic.value.DoubleValue
-51.042

@<SCITEGIC>MOL_PROPERTY
Grad RMS
SciTegic.value.DoubleValue
0.000000

@<SCITEGIC>MOL_PROPERTY
U
SciTegic.value.DoubleValue
10.045

@<SCITEGIC>MOL_PROPERTY
W
SciTegic.value.DoubleValue
-61.086

@<SCITEGIC>MOL_PROPERTY
W(PB)
SciTegic.value.DoubleValue
-63.356

@<SCITEGIC>MOL_PROPERTY
W(SA)
SciTegic.value.DoubleValue
2.270

@<SCITEGIC>MOL_PROPERTY
Valence
SciTegic.value.DoubleValue
10.100

@<SCITEGIC>MOL_PROPERTY
Coulomb
SciTegic.value.DoubleValue
-0.883

@<SCITEGIC>MOL_PROPERTY
VdW
SciTegic.value.DoubleValue
0.828

@<SCITEGIC>MOL_PROPERTY
VdW6
SciTegic.value.DoubleValue
-8.177

@<SCITEGIC>MOL_PROPERTY
VdW12
SciTegic.value.DoubleValue
9.004

@<SCITEGIC>MOL_PROPERTY
Bond
SciTegic.value.DoubleValue
0.182

@<SCITEGIC>MOL_PROPERTY
Angle
SciTegic.value.DoubleValue
2.988

@<SCITEGIC>MOL_PROPERTY
Pdih
SciTegic.value.DoubleValue
6.930

@<SCITEGIC>MOL_PROPERTY
Idih
SciTegic.value.DoubleValue
0.001

@<SCITEGIC>MOL_PROPERTY
Tether
SciTegic.value.DoubleValue
0.000

@<TRIPOS>MOLECULE
guest-s21_confgen4.mol2 : confsearch ligand conformer 354
          22          21           1
SMALL
USER_CHARGES
 
@<TRIPOS>ATOM
       1    C1      18.205976   17.392833   24.268568 C.2        1 MOL1         0.6145
       2    O1      18.052093   16.333547   23.692610 O.co2      1 MOL1        -0.6735
       3    O2      17.306124   18.185722   24.465157 O.co2      1 MOL1        -0.6735
       4    C2      19.586357   17.714751   24.838105 C.3        1 MOL1        -0.1985
       5    H1      19.793971   16.948688   25.594131 H          1 MOL1         0.0740
       6    H2      19.538682   18.673734   25.368126 H          1 MOL1         0.0740
       7    C3      20.745153   17.729362   23.801736 C.3        1 MOL1        -0.1882
       8    H3      21.689559   17.600690   24.347596 H          1 MOL1         0.0742
       9    H4      20.661557   16.860630   23.133987 H          1 MOL1         0.0742
      10    C4      20.855502   19.030656   22.969049 C.3        1 MOL1        -0.1880
      11    H5      21.789441   18.988974   22.391992 H          1 MOL1         0.0742
      12    H6      20.947126   19.893781   23.642436 H          1 MOL1         0.0742
      13    C5      19.678706   19.256023   21.992899 C.3        1 MOL1        -0.1880
      14    H7      19.521862   18.351805   21.388883 H          1 MOL1         0.0742
      15    H8      18.753894   19.429965   22.557284 H          1 MOL1         0.0742
      16    C6      19.931662   20.461608   21.063101 C.3        1 MOL1        -0.1856
      17    H9      20.851036   20.297638   20.484118 H          1 MOL1         0.0742
      18    H10     20.090498   21.366505   21.665885 H          1 MOL1         0.0742
      19    C7      18.752454   20.690263   20.096354 C.3        1 MOL1        -0.2871
      20    H11     18.591245   19.810916   19.459071 H          1 MOL1         0.0754
      21    H12     18.948065   21.551017   19.443771 H          1 MOL1         0.0754
      22    H13     17.824522   20.887423   20.649140 H          1 MOL1         0.0754
@<TRIPOS>BOND
    1     1     2    1
    2     1     3    2
    3     1     4    1
    4     4     5    1
    5     4     6    1
    6     4     7    1
    7     7     8    1
    8     7     9    1
    9     7    10    1
   10    10    11    1
   11    10    12    1
   12    10    13    1
   13    13    14    1
   14    13    15    1
   15    13    16    1
   16    16    17    1
   17    16    18    1
   18    16    19    1
   19    19    20    1
   20    19    21    1
   21    19    22    1
@<TRIPOS>SUBSTRUCTURE
       1 MOL1            1 RESIDUE      1      MOL     
@<SCITEGIC>MOL_PROPERTY
VConf Rank
SciTegic.value.IntegerValue
354

@<SCITEGIC>MOL_PROPERTY
Conf_Id
SciTegic.value.IntegerValue
8

@<SCITEGIC>MOL_PROPERTY
Delta U+W
SciTegic.value.DoubleValue
1.886

@<SCITEGIC>MOL_PROPERTY
U+W
SciTegic.value.DoubleValue
-51.274

@<SCITEGIC>MOL_PROPERTY
Grad RMS
SciTegic.value.DoubleValue
0.000000

@<SCITEGIC>MOL_PROPERTY
U
SciTegic.value.DoubleValue
11.237

@<SCITEGIC>MOL_PROPERTY
W
SciTegic.value.DoubleValue
-62.510

@<SCITEGIC>MOL_PROPERTY
W(PB)
SciTegic.value.DoubleValue
-64.777

@<SCITEGIC>MOL_PROPERTY
W(SA)
SciTegic.value.DoubleValue
2.267

@<SCITEGIC>MOL_PROPERTY
Valence
SciTegic.value.DoubleValue
9.029

@<SCITEGIC>MOL_PROPERTY
Coulomb
SciTegic.value.DoubleValue
1.667

@<SCITEGIC>MOL_PROPERTY
VdW
SciTegic.value.DoubleValue
0.540

@<SCITEGIC>MOL_PROPERTY
VdW6
SciTegic.value.DoubleValue
-8.825

@<SCITEGIC>MOL_PROPERTY
VdW12
SciTegic.value.DoubleValue
9.365

@<SCITEGIC>MOL_PROPERTY
Bond
SciTegic.value.DoubleValue
0.186

@<SCITEGIC>MOL_PROPERTY
Angle
SciTegic.value.DoubleValue
3.195

@<SCITEGIC>MOL_PROPERTY
Pdih
SciTegic.value.DoubleValue
5.642

@<SCITEGIC>MOL_PROPERTY
Idih
SciTegic.value.DoubleValue
0.007

@<SCITEGIC>MOL_PROPERTY
Tether
SciTegic.value.DoubleValue
0.000

@<TRIPOS>MOLECULE
guest-s21_confgen4.mol2 : confsearch ligand conformer 355
          22          21           1
SMALL
USER_CHARGES
 
@<TRIPOS>ATOM
       1    C1      22.089202   17.071864   22.946377 C.2        1 MOL1         0.6145
       2    O1      21.687108   16.337061   22.065951 O.co2      1 MOL1        -0.6735
       3    O2      22.461357   16.676655   24.033859 O.co2      1 MOL1        -0.6735
       4    C2      22.159891   18.569806   22.662938 C.3        1 MOL1        -0.1985
       5    H1      22.065198   18.727989   21.582790 H          1 MOL1         0.0740
       6    H2      23.166791   18.905556   22.937066 H          1 MOL1         0.0740
       7    C3      21.109920   19.413452   23.436869 C.3        1 MOL1        -0.1882
       8    H3      21.287301   19.291215   24.514329 H          1 MOL1         0.0742
       9    H4      21.270453   20.477729   23.218066 H          1 MOL1         0.0742
      10    C4      19.636369   19.047061   23.131685 C.3        1 MOL1        -0.1880
      11    H5      18.995911   19.636232   23.800029 H          1 MOL1         0.0742
      12    H6      19.457038   17.992294   23.381148 H          1 MOL1         0.0742
      13    C5      19.227816   19.309503   21.661430 C.3        1 MOL1        -0.1880
      14    H7      19.424045   20.358657   21.402081 H          1 MOL1         0.0742
      15    H8      19.853592   18.699511   20.997166 H          1 MOL1         0.0742
      16    C6      17.748123   18.970640   21.365317 C.3        1 MOL1        -0.1856
      17    H9      17.545351   17.925823   21.638481 H          1 MOL1         0.0742
      18    H10     17.580887   19.045612   20.281994 H          1 MOL1         0.0742
      19    C7      16.748255   19.901380   22.085592 C.3        1 MOL1        -0.2871
      20    H11     16.791853   19.772779   23.174128 H          1 MOL1         0.0754
      21    H12     15.721321   19.680626   21.766889 H          1 MOL1         0.0754
      22    H13     16.954719   20.954383   21.853952 H          1 MOL1         0.0754
@<TRIPOS>BOND
    1     1     2    1
    2     1     3    2
    3     1     4    1
    4     4     5    1
    5     4     6    1
    6     4     7    1
    7     7     8    1
    8     7     9    1
    9     7    10    1
   10    10    11    1
   11    10    12    1
   12    10    13    1
   13    13    14    1
   14    13    15    1
   15    13    16    1
   16    16    17    1
   17    16    18    1
   18    16    19    1
   19    19    20    1
   20    19    21    1
   21    19    22    1
@<TRIPOS>SUBSTRUCTURE
       1 MOL1            1 RESIDUE      1      MOL     
@<SCITEGIC>MOL_PROPERTY
VConf Rank
SciTegic.value.IntegerValue
355

@<SCITEGIC>MOL_PROPERTY
Conf_Id
SciTegic.value.IntegerValue
93

@<SCITEGIC>MOL_PROPERTY
Delta U+W
SciTegic.value.DoubleValue
1.836

@<SCITEGIC>MOL_PROPERTY
U+W
SciTegic.value.DoubleValue
-51.323

@<SCITEGIC>MOL_PROPERTY
Grad RMS
SciTegic.value.DoubleValue
0.000000

@<SCITEGIC>MOL_PROPERTY
U
SciTegic.value.DoubleValue
10.427

@<SCITEGIC>MOL_PROPERTY
W
SciTegic.value.DoubleValue
-61.751

@<SCITEGIC>MOL_PROPERTY
W(PB)
SciTegic.value.DoubleValue
-63.980

@<SCITEGIC>MOL_PROPERTY
W(SA)
SciTegic.value.DoubleValue
2.230

@<SCITEGIC>MOL_PROPERTY
Valence
SciTegic.value.DoubleValue
8.446

@<SCITEGIC>MOL_PROPERTY
Coulomb
SciTegic.value.DoubleValue
1.306

@<SCITEGIC>MOL_PROPERTY
VdW
SciTegic.value.DoubleValue
0.676

@<SCITEGIC>MOL_PROPERTY
VdW6
SciTegic.value.DoubleValue
-8.928

@<SCITEGIC>MOL_PROPERTY
VdW12
SciTegic.value.DoubleValue
9.604

@<SCITEGIC>MOL_PROPERTY
Bond
SciTegic.value.DoubleValue
0.209

@<SCITEGIC>MOL_PROPERTY
Angle
SciTegic.value.DoubleValue
3.066

@<SCITEGIC>MOL_PROPERTY
Pdih
SciTegic.value.DoubleValue
5.170

@<SCITEGIC>MOL_PROPERTY
Idih
SciTegic.value.DoubleValue
0.001

@<SCITEGIC>MOL_PROPERTY
Tether
SciTegic.value.DoubleValue
0.000

@<TRIPOS>MOLECULE
guest-s21_confgen4.mol2 : confsearch ligand conformer 356
          22          21           1
SMALL
USER_CHARGES
 
@<TRIPOS>ATOM
       1    C1      19.900090   22.065409   23.357217 C.2        1 MOL1         0.6145
       2    O1      18.955577   22.775063   23.642860 O.co2      1 MOL1        -0.6735
       3    O2      20.656172   22.292732   22.433405 O.co2      1 MOL1        -0.6735
       4    C2      20.166690   20.839169   24.225794 C.3        1 MOL1        -0.1985
       5    H1      20.161314   21.172809   25.270006 H          1 MOL1         0.0740
       6    H2      21.181087   20.478175   24.022350 H          1 MOL1         0.0740
       7    C3      19.129730   19.696320   24.047585 C.3        1 MOL1        -0.1882
       8    H3      19.365095   18.883587   24.747871 H          1 MOL1         0.0742
       9    H4      18.139082   20.073637   24.336679 H          1 MOL1         0.0742
      10    C4      19.042710   19.122539   22.611641 C.3        1 MOL1        -0.1880
      11    H5      18.772490   19.922125   21.908385 H          1 MOL1         0.0742
      12    H6      18.219729   18.397236   22.586468 H          1 MOL1         0.0742
      13    C5      20.349192   18.437318   22.141513 C.3        1 MOL1        -0.1880
      14    H7      21.164690   19.172093   22.143796 H          1 MOL1         0.0742
      15    H8      20.633534   17.650116   22.852818 H          1 MOL1         0.0742
      16    C6      20.251330   17.839186   20.718610 C.3        1 MOL1        -0.1856
      17    H9      21.251157   17.505310   20.408692 H          1 MOL1         0.0742
      18    H10     19.951741   18.621480   20.007524 H          1 MOL1         0.0742
      19    C7      19.278211   16.644171   20.619678 C.3        1 MOL1        -0.2871
      20    H11     18.241734   16.953626   20.802167 H          1 MOL1         0.0754
      21    H12     19.538610   15.864161   21.346917 H          1 MOL1         0.0754
      22    H13     19.319215   16.198548   19.617362 H          1 MOL1         0.0754
@<TRIPOS>BOND
    1     1     2    1
    2     1     3    2
    3     1     4    1
    4     4     5    1
    5     4     6    1
    6     4     7    1
    7     7     8    1
    8     7     9    1
    9     7    10    1
   10    10    11    1
   11    10    12    1
   12    10    13    1
   13    13    14    1
   14    13    15    1
   15    13    16    1
   16    16    17    1
   17    16    18    1
   18    16    19    1
   19    19    20    1
   20    19    21    1
   21    19    22    1
@<TRIPOS>SUBSTRUCTURE
       1 MOL1            1 RESIDUE      1      MOL     
@<SCITEGIC>MOL_PROPERTY
VConf Rank
SciTegic.value.IntegerValue
356

@<SCITEGIC>MOL_PROPERTY
Conf_Id
SciTegic.value.IntegerValue
70

@<SCITEGIC>MOL_PROPERTY
Delta U+W
SciTegic.value.DoubleValue
1.803

@<SCITEGIC>MOL_PROPERTY
U+W
SciTegic.value.DoubleValue
-51.356

@<SCITEGIC>MOL_PROPERTY
Grad RMS
SciTegic.value.DoubleValue
0.000000

@<SCITEGIC>MOL_PROPERTY
U
SciTegic.value.DoubleValue
10.428

@<SCITEGIC>MOL_PROPERTY
W
SciTegic.value.DoubleValue
-61.784

@<SCITEGIC>MOL_PROPERTY
W(PB)
SciTegic.value.DoubleValue
-64.014

@<SCITEGIC>MOL_PROPERTY
W(SA)
SciTegic.value.DoubleValue
2.230

@<SCITEGIC>MOL_PROPERTY
Valence
SciTegic.value.DoubleValue
8.445

@<SCITEGIC>MOL_PROPERTY
Coulomb
SciTegic.value.DoubleValue
1.306

@<SCITEGIC>MOL_PROPERTY
VdW
SciTegic.value.DoubleValue
0.676

@<SCITEGIC>MOL_PROPERTY
VdW6
SciTegic.value.DoubleValue
-8.929

@<SCITEGIC>MOL_PROPERTY
VdW12
SciTegic.value.DoubleValue
9.605

@<SCITEGIC>MOL_PROPERTY
Bond
SciTegic.value.DoubleValue
0.209

@<SCITEGIC>MOL_PROPERTY
Angle
SciTegic.value.DoubleValue
3.066

@<SCITEGIC>MOL_PROPERTY
Pdih
SciTegic.value.DoubleValue
5.170

@<SCITEGIC>MOL_PROPERTY
Idih
SciTegic.value.DoubleValue
0.001

@<SCITEGIC>MOL_PROPERTY
Tether
SciTegic.value.DoubleValue
0.000

@<TRIPOS>MOLECULE
guest-s21_confgen4.mol2 : confsearch ligand conformer 357
          22          21           1
SMALL
USER_CHARGES
 
@<TRIPOS>ATOM
       1    C1      18.303294   19.932858   25.271786 C.2        1 MOL1         0.6145
       2    O1      18.712877   19.106551   26.063222 O.co2      1 MOL1        -0.6735
       3    O2      17.123637   20.150788   25.077379 O.co2      1 MOL1        -0.6735
       4    C2      19.328350   20.755406   24.496046 C.3        1 MOL1        -0.1985
       5    H1      20.094250   21.082689   25.209013 H          1 MOL1         0.0740
       6    H2      18.837800   21.661130   24.119398 H          1 MOL1         0.0740
       7    C3      20.001262   19.985398   23.330173 C.3        1 MOL1        -0.1882
       8    H3      20.809910   20.601932   22.915155 H          1 MOL1         0.0742
       9    H4      20.467976   19.074705   23.728226 H          1 MOL1         0.0742
      10    C4      19.002843   19.626577   22.203687 C.3        1 MOL1        -0.1880
      11    H5      18.484805   20.540224   21.881622 H          1 MOL1         0.0742
      12    H6      18.227359   18.952520   22.593015 H          1 MOL1         0.0742
      13    C5      19.673942   18.980879   20.968280 C.3        1 MOL1        -0.1880
      14    H7      18.918426   18.874465   20.177862 H          1 MOL1         0.0742
      15    H8      20.444492   19.656441   20.572384 H          1 MOL1         0.0742
      16    C6      20.294451   17.595648   21.258577 C.3        1 MOL1        -0.1856
      17    H9      19.536675   16.936256   21.703827 H          1 MOL1         0.0742
      18    H10     21.106650   17.690874   21.991123 H          1 MOL1         0.0742
      19    C7      20.849899   16.944779   19.975776 C.3        1 MOL1        -0.2871
      20    H11     20.054792   16.798426   19.232986 H          1 MOL1         0.0754
      21    H12     21.289542   15.963977   20.198938 H          1 MOL1         0.0754
      22    H13     21.630217   17.571274   19.524132 H          1 MOL1         0.0754
@<TRIPOS>BOND
    1     1     2    1
    2     1     3    2
    3     1     4    1
    4     4     5    1
    5     4     6    1
    6     4     7    1
    7     7     8    1
    8     7     9    1
    9     7    10    1
   10    10    11    1
   11    10    12    1
   12    10    13    1
   13    13    14    1
   14    13    15    1
   15    13    16    1
   16    16    17    1
   17    16    18    1
   18    16    19    1
   19    19    20    1
   20    19    21    1
   21    19    22    1
@<TRIPOS>SUBSTRUCTURE
       1 MOL1            1 RESIDUE      1      MOL     
@<SCITEGIC>MOL_PROPERTY
VConf Rank
SciTegic.value.IntegerValue
357

@<SCITEGIC>MOL_PROPERTY
Conf_Id
SciTegic.value.IntegerValue
85

@<SCITEGIC>MOL_PROPERTY
Delta U+W
SciTegic.value.DoubleValue
0.707

@<SCITEGIC>MOL_PROPERTY
U+W
SciTegic.value.DoubleValue
-52.452

@<SCITEGIC>MOL_PROPERTY
Grad RMS
SciTegic.value.DoubleValue
0.000000

@<SCITEGIC>MOL_PROPERTY
U
SciTegic.value.DoubleValue
8.925

@<SCITEGIC>MOL_PROPERTY
W
SciTegic.value.DoubleValue
-61.378

@<SCITEGIC>MOL_PROPERTY
W(PB)
SciTegic.value.DoubleValue
-63.661

@<SCITEGIC>MOL_PROPERTY
W(SA)
SciTegic.value.DoubleValue
2.283

@<SCITEGIC>MOL_PROPERTY
Valence
SciTegic.value.DoubleValue
7.881

@<SCITEGIC>MOL_PROPERTY
Coulomb
SciTegic.value.DoubleValue
0.349

@<SCITEGIC>MOL_PROPERTY
VdW
SciTegic.value.DoubleValue
0.695

@<SCITEGIC>MOL_PROPERTY
VdW6
SciTegic.value.DoubleValue
-8.049

@<SCITEGIC>MOL_PROPERTY
VdW12
SciTegic.value.DoubleValue
8.743

@<SCITEGIC>MOL_PROPERTY
Bond
SciTegic.value.DoubleValue
0.156

@<SCITEGIC>MOL_PROPERTY
Angle
SciTegic.value.DoubleValue
2.660

@<SCITEGIC>MOL_PROPERTY
Pdih
SciTegic.value.DoubleValue
5.064

@<SCITEGIC>MOL_PROPERTY
Idih
SciTegic.value.DoubleValue
0.001

@<SCITEGIC>MOL_PROPERTY
Tether
SciTegic.value.DoubleValue
0.000

@<TRIPOS>MOLECULE
guest-s21_confgen4.mol2 : confsearch ligand conformer 358
          22          21           1
SMALL
USER_CHARGES
 
@<TRIPOS>ATOM
       1    C1      23.014093   19.971544   22.291770 C.2        1 MOL1         0.6145
       2    O1      23.748365   19.222885   21.677526 O.co2      1 MOL1        -0.6735
       3    O2      22.994889   21.175951   22.130498 O.co2      1 MOL1        -0.6735
       4    C2      22.080956   19.371114   23.339690 C.3        1 MOL1        -0.1985
       5    H1      22.161631   19.989393   24.241473 H          1 MOL1         0.0740
       6    H2      22.448124   18.372454   23.605626 H          1 MOL1         0.0740
       7    C3      20.596591   19.295282   22.896299 C.3        1 MOL1        -0.1882
       8    H3      19.991645   19.001979   23.763432 H          1 MOL1         0.0742
       9    H4      20.256101   20.293486   22.588187 H          1 MOL1         0.0742
      10    C4      20.369163   18.284054   21.748790 C.3        1 MOL1        -0.1880
      11    H5      20.631726   17.274948   22.094431 H          1 MOL1         0.0742
      12    H6      21.057062   18.513948   20.923693 H          1 MOL1         0.0742
      13    C5      18.926321   18.276238   21.184282 C.3        1 MOL1        -0.1880
      14    H7      18.686267   19.256891   20.751131 H          1 MOL1         0.0742
      15    H8      18.904243   17.566757   20.345821 H          1 MOL1         0.0742
      16    C6      17.834242   17.855930   22.199471 C.3        1 MOL1        -0.1856
      17    H9      18.259554   17.190469   22.963331 H          1 MOL1         0.0742
      18    H10     17.072179   17.266362   21.671298 H          1 MOL1         0.0742
      19    C7      17.129114   19.057375   22.867569 C.3        1 MOL1        -0.2871
      20    H11     17.832314   19.683925   23.427790 H          1 MOL1         0.0754
      21    H12     16.358832   18.709453   23.567879 H          1 MOL1         0.0754
      22    H13     16.638309   19.688907   22.115662 H          1 MOL1         0.0754
@<TRIPOS>BOND
    1     1     2    1
    2     1     3    2
    3     1     4    1
    4     4     5    1
    5     4     6    1
    6     4     7    1
    7     7     8    1
    8     7     9    1
    9     7    10    1
   10    10    11    1
   11    10    12    1
   12    10    13    1
   13    13    14    1
   14    13    15    1
   15    13    16    1
   16    16    17    1
   17    16    18    1
   18    16    19    1
   19    19    20    1
   20    19    21    1
   21    19    22    1
@<TRIPOS>SUBSTRUCTURE
       1 MOL1            1 RESIDUE      1      MOL     
@<SCITEGIC>MOL_PROPERTY
VConf Rank
SciTegic.value.IntegerValue
358

@<SCITEGIC>MOL_PROPERTY
Conf_Id
SciTegic.value.IntegerValue
82

@<SCITEGIC>MOL_PROPERTY
Delta U+W
SciTegic.value.DoubleValue
3.438

@<SCITEGIC>MOL_PROPERTY
U+W
SciTegic.value.DoubleValue
-49.721

@<SCITEGIC>MOL_PROPERTY
Grad RMS
SciTegic.value.DoubleValue
0.000000

@<SCITEGIC>MOL_PROPERTY
U
SciTegic.value.DoubleValue
11.773

@<SCITEGIC>MOL_PROPERTY
W
SciTegic.value.DoubleValue
-61.495

@<SCITEGIC>MOL_PROPERTY
W(PB)
SciTegic.value.DoubleValue
-63.749

@<SCITEGIC>MOL_PROPERTY
W(SA)
SciTegic.value.DoubleValue
2.254

@<SCITEGIC>MOL_PROPERTY
Valence
SciTegic.value.DoubleValue
10.419

@<SCITEGIC>MOL_PROPERTY
Coulomb
SciTegic.value.DoubleValue
0.565

@<SCITEGIC>MOL_PROPERTY
VdW
SciTegic.value.DoubleValue
0.789

@<SCITEGIC>MOL_PROPERTY
VdW6
SciTegic.value.DoubleValue
-8.847

@<SCITEGIC>MOL_PROPERTY
VdW12
SciTegic.value.DoubleValue
9.636

@<SCITEGIC>MOL_PROPERTY
Bond
SciTegic.value.DoubleValue
0.200

@<SCITEGIC>MOL_PROPERTY
Angle
SciTegic.value.DoubleValue
3.187

@<SCITEGIC>MOL_PROPERTY
Pdih
SciTegic.value.DoubleValue
7.032

@<SCITEGIC>MOL_PROPERTY
Idih
SciTegic.value.DoubleValue
0.001

@<SCITEGIC>MOL_PROPERTY
Tether
SciTegic.value.DoubleValue
0.000

@<TRIPOS>MOLECULE
guest-s21_confgen4.mol2 : confsearch ligand conformer 359
          22          21           1
SMALL
USER_CHARGES
 
@<TRIPOS>ATOM
       1    C1      19.233134   15.645748   22.175999 C.2        1 MOL1         0.6145
       2    O1      18.238088   15.425520   22.838085 O.co2      1 MOL1        -0.6735
       3    O2      19.407819   15.203136   21.057733 O.co2      1 MOL1        -0.6735
       4    C2      20.332132   16.506181   22.793461 C.3        1 MOL1        -0.1985
       5    H1      21.265679   16.329518   22.245613 H          1 MOL1         0.0740
       6    H2      20.491960   16.146954   23.816887 H          1 MOL1         0.0740
       7    C3      20.007374   18.022544   22.822908 C.3        1 MOL1        -0.1882
       8    H3      19.047102   18.180457   23.333025 H          1 MOL1         0.0742
       9    H4      20.776313   18.528936   23.419738 H          1 MOL1         0.0742
      10    C4      19.962125   18.649023   21.409912 C.3        1 MOL1        -0.1880
      11    H5      19.272703   18.069972   20.780437 H          1 MOL1         0.0742
      12    H6      20.951544   18.562409   20.940607 H          1 MOL1         0.0742
      13    C5      19.507758   20.130052   21.384825 C.3        1 MOL1        -0.1880
      14    H7      19.460948   20.442707   20.332721 H          1 MOL1         0.0742
      15    H8      18.481289   20.215405   21.766929 H          1 MOL1         0.0742
      16    C6      20.443636   21.109102   22.136816 C.3        1 MOL1        -0.1856
      17    H9      20.478271   22.057192   21.582537 H          1 MOL1         0.0742
      18    H10     21.472191   20.722818   22.145161 H          1 MOL1         0.0742
      19    C7      19.974268   21.415433   23.576566 C.3        1 MOL1        -0.2871
      20    H11     18.975176   21.870280   23.572541 H          1 MOL1         0.0754
      21    H12     20.661562   22.119832   24.062639 H          1 MOL1         0.0754
      22    H13     19.930897   20.510664   24.193345 H          1 MOL1         0.0754
@<TRIPOS>BOND
    1     1     2    1
    2     1     3    2
    3     1     4    1
    4     4     5    1
    5     4     6    1
    6     4     7    1
    7     7     8    1
    8     7     9    1
    9     7    10    1
   10    10    11    1
   11    10    12    1
   12    10    13    1
   13    13    14    1
   14    13    15    1
   15    13    16    1
   16    16    17    1
   17    16    18    1
   18    16    19    1
   19    19    20    1
   20    19    21    1
   21    19    22    1
@<TRIPOS>SUBSTRUCTURE
       1 MOL1            1 RESIDUE      1      MOL     
@<SCITEGIC>MOL_PROPERTY
VConf Rank
SciTegic.value.IntegerValue
359

@<SCITEGIC>MOL_PROPERTY
Conf_Id
SciTegic.value.IntegerValue
94

@<SCITEGIC>MOL_PROPERTY
Delta U+W
SciTegic.value.DoubleValue
3.471

@<SCITEGIC>MOL_PROPERTY
U+W
SciTegic.value.DoubleValue
-49.688

@<SCITEGIC>MOL_PROPERTY
Grad RMS
SciTegic.value.DoubleValue
0.000000

@<SCITEGIC>MOL_PROPERTY
U
SciTegic.value.DoubleValue
11.773

@<SCITEGIC>MOL_PROPERTY
W
SciTegic.value.DoubleValue
-61.461

@<SCITEGIC>MOL_PROPERTY
W(PB)
SciTegic.value.DoubleValue
-63.710

@<SCITEGIC>MOL_PROPERTY
W(SA)
SciTegic.value.DoubleValue
2.248

@<SCITEGIC>MOL_PROPERTY
Valence
SciTegic.value.DoubleValue
10.419

@<SCITEGIC>MOL_PROPERTY
Coulomb
SciTegic.value.DoubleValue
0.566

@<SCITEGIC>MOL_PROPERTY
VdW
SciTegic.value.DoubleValue
0.789

@<SCITEGIC>MOL_PROPERTY
VdW6
SciTegic.value.DoubleValue
-8.847

@<SCITEGIC>MOL_PROPERTY
VdW12
SciTegic.value.DoubleValue
9.636

@<SCITEGIC>MOL_PROPERTY
Bond
SciTegic.value.DoubleValue
0.200

@<SCITEGIC>MOL_PROPERTY
Angle
SciTegic.value.DoubleValue
3.187

@<SCITEGIC>MOL_PROPERTY
Pdih
SciTegic.value.DoubleValue
7.032

@<SCITEGIC>MOL_PROPERTY
Idih
SciTegic.value.DoubleValue
0.001

@<SCITEGIC>MOL_PROPERTY
Tether
SciTegic.value.DoubleValue
0.000

@<TRIPOS>MOLECULE
guest-s21_confgen4.mol2 : confsearch ligand conformer 360
          22          21           1
SMALL
USER_CHARGES
 
@<TRIPOS>ATOM
       1    C1      18.060944   16.424434   21.419670 C.2        1 MOL1         0.6145
       2    O1      18.366869   15.259026   21.261769 O.co2      1 MOL1        -0.6735
       3    O2      17.170365   16.975452   20.803371 O.co2      1 MOL1        -0.6735
       4    C2      18.850844   17.244981   22.432929 C.3        1 MOL1        -0.1985
       5    H1      19.160475   16.577161   23.245564 H          1 MOL1         0.0740
       6    H2      18.170406   17.988441   22.863400 H          1 MOL1         0.0740
       7    C3      20.089575   17.938174   21.808843 C.3        1 MOL1        -0.1882
       8    H3      20.708833   17.176685   21.315130 H          1 MOL1         0.0742
       9    H4      19.765582   18.626264   21.016766 H          1 MOL1         0.0742
      10    C4      20.963507   18.690699   22.843427 C.3        1 MOL1        -0.1880
      11    H5      21.841897   19.105329   22.331580 H          1 MOL1         0.0742
      12    H6      21.357170   17.965817   23.568769 H          1 MOL1         0.0742
      13    C5      20.240786   19.823668   23.618811 C.3        1 MOL1        -0.1880
      14    H7      19.463473   19.387201   24.259540 H          1 MOL1         0.0742
      15    H8      20.960130   20.292870   24.303602 H          1 MOL1         0.0742
      16    C6      19.603228   20.924065   22.735310 C.3        1 MOL1        -0.1856
      17    H9      19.101773   21.651052   23.388717 H          1 MOL1         0.0742
      18    H10     18.817040   20.492133   22.101792 H          1 MOL1         0.0742
      19    C7      20.629433   21.671097   21.856304 C.3        1 MOL1        -0.2871
      20    H11     21.434407   22.097599   22.468731 H          1 MOL1         0.0754
      21    H12     20.144669   22.492927   21.313769 H          1 MOL1         0.0754
      22    H13     21.079758   21.001291   21.112984 H          1 MOL1         0.0754
@<TRIPOS>BOND
    1     1     2    1
    2     1     3    2
    3     1     4    1
    4     4     5    1
    5     4     6    1
    6     4     7    1
    7     7     8    1
    8     7     9    1
    9     7    10    1
   10    10    11    1
   11    10    12    1
   12    10    13    1
   13    13    14    1
   14    13    15    1
   15    13    16    1
   16    16    17    1
   17    16    18    1
   18    16    19    1
   19    19    20    1
   20    19    21    1
   21    19    22    1
@<TRIPOS>SUBSTRUCTURE
       1 MOL1            1 RESIDUE      1      MOL     
@<SCITEGIC>MOL_PROPERTY
VConf Rank
SciTegic.value.IntegerValue
360

@<SCITEGIC>MOL_PROPERTY
Conf_Id
SciTegic.value.IntegerValue
56

@<SCITEGIC>MOL_PROPERTY
Delta U+W
SciTegic.value.DoubleValue
0.853

@<SCITEGIC>MOL_PROPERTY
U+W
SciTegic.value.DoubleValue
-52.307

@<SCITEGIC>MOL_PROPERTY
Grad RMS
SciTegic.value.DoubleValue
0.000000

@<SCITEGIC>MOL_PROPERTY
U
SciTegic.value.DoubleValue
8.874

@<SCITEGIC>MOL_PROPERTY
W
SciTegic.value.DoubleValue
-61.181

@<SCITEGIC>MOL_PROPERTY
W(PB)
SciTegic.value.DoubleValue
-63.413

@<SCITEGIC>MOL_PROPERTY
W(SA)
SciTegic.value.DoubleValue
2.232

@<SCITEGIC>MOL_PROPERTY
Valence
SciTegic.value.DoubleValue
8.479

@<SCITEGIC>MOL_PROPERTY
Coulomb
SciTegic.value.DoubleValue
-0.357

@<SCITEGIC>MOL_PROPERTY
VdW
SciTegic.value.DoubleValue
0.753

@<SCITEGIC>MOL_PROPERTY
VdW6
SciTegic.value.DoubleValue
-9.081

@<SCITEGIC>MOL_PROPERTY
VdW12
SciTegic.value.DoubleValue
9.833

@<SCITEGIC>MOL_PROPERTY
Bond
SciTegic.value.DoubleValue
0.221

@<SCITEGIC>MOL_PROPERTY
Angle
SciTegic.value.DoubleValue
3.208

@<SCITEGIC>MOL_PROPERTY
Pdih
SciTegic.value.DoubleValue
5.050

@<SCITEGIC>MOL_PROPERTY
Idih
SciTegic.value.DoubleValue
0.000

@<SCITEGIC>MOL_PROPERTY
Tether
SciTegic.value.DoubleValue
0.000

@<TRIPOS>MOLECULE
guest-s21_confgen4.mol2 : confsearch ligand conformer 361
          22          21           1
SMALL
USER_CHARGES
 
@<TRIPOS>ATOM
       1    C1      20.173923   18.708431   26.188336 C.2        1 MOL1         0.6145
       2    O1      21.087619   17.908585   26.126641 O.co2      1 MOL1        -0.6735
       3    O2      19.722422   19.120137   27.238368 O.co2      1 MOL1        -0.6735
       4    C2      19.542030   19.239703   24.900707 C.3        1 MOL1        -0.1985
       5    H1      19.631423   20.332239   24.919206 H          1 MOL1         0.0740
       6    H2      18.471943   19.004531   24.940398 H          1 MOL1         0.0740
       7    C3      20.152239   18.685837   23.585684 C.3        1 MOL1        -0.1882
       8    H3      21.225559   18.919387   23.555219 H          1 MOL1         0.0742
       9    H4      20.064867   17.590498   23.576333 H          1 MOL1         0.0742
      10    C4      19.457165   19.273113   22.338089 C.3        1 MOL1        -0.1880
      11    H5      19.545819   20.368164   22.349654 H          1 MOL1         0.0742
      12    H6      18.384314   19.038488   22.370847 H          1 MOL1         0.0742
      13    C5      20.065596   18.720796   21.031159 C.3        1 MOL1        -0.1880
      14    H7      21.138495   18.955134   20.997970 H          1 MOL1         0.0742
      15    H8      19.977138   17.625735   21.019127 H          1 MOL1         0.0742
      16    C6      19.371515   19.307297   19.784015 C.3        1 MOL1        -0.1856
      17    H9      19.459735   20.402576   19.791532 H          1 MOL1         0.0742
      18    H10     18.298279   19.073170   19.812733 H          1 MOL1         0.0742
      19    C7      19.981933   18.753214   18.481050 C.3        1 MOL1        -0.2871
      20    H11     21.049333   19.000554   18.411130 H          1 MOL1         0.0754
      21    H12     19.476948   19.180480   17.604964 H          1 MOL1         0.0754
      22    H13     19.879114   17.661209   18.432458 H          1 MOL1         0.0754
@<TRIPOS>BOND
    1     1     2    1
    2     1     3    2
    3     1     4    1
    4     4     5    1
    5     4     6    1
    6     4     7    1
    7     7     8    1
    8     7     9    1
    9     7    10    1
   10    10    11    1
   11    10    12    1
   12    10    13    1
   13    13    14    1
   14    13    15    1
   15    13    16    1
   16    16    17    1
   17    16    18    1
   18    16    19    1
   19    19    20    1
   20    19    21    1
   21    19    22    1
@<TRIPOS>SUBSTRUCTURE
       1 MOL1            1 RESIDUE      1      MOL     
@<SCITEGIC>MOL_PROPERTY
VConf Rank
SciTegic.value.IntegerValue
361

@<SCITEGIC>MOL_PROPERTY
Conf_Id
SciTegic.value.IntegerValue
0

@<SCITEGIC>MOL_PROPERTY
Delta U+W
SciTegic.value.DoubleValue
0.000

@<SCITEGIC>MOL_PROPERTY
U+W
SciTegic.value.DoubleValue
-53.159

@<SCITEGIC>MOL_PROPERTY
Grad RMS
SciTegic.value.DoubleValue
0.000000

@<SCITEGIC>MOL_PROPERTY
U
SciTegic.value.DoubleValue
6.763

@<SCITEGIC>MOL_PROPERTY
W
SciTegic.value.DoubleValue
-59.922

@<SCITEGIC>MOL_PROPERTY
W(PB)
SciTegic.value.DoubleValue
-62.256

@<SCITEGIC>MOL_PROPERTY
W(SA)
SciTegic.value.DoubleValue
2.334

@<SCITEGIC>MOL_PROPERTY
Valence
SciTegic.value.DoubleValue
7.600

@<SCITEGIC>MOL_PROPERTY
Coulomb
SciTegic.value.DoubleValue
-2.139

@<SCITEGIC>MOL_PROPERTY
VdW
SciTegic.value.DoubleValue
1.302

@<SCITEGIC>MOL_PROPERTY
VdW6
SciTegic.value.DoubleValue
-6.786

@<SCITEGIC>MOL_PROPERTY
VdW12
SciTegic.value.DoubleValue
8.088

@<SCITEGIC>MOL_PROPERTY
Bond
SciTegic.value.DoubleValue
0.134

@<SCITEGIC>MOL_PROPERTY
Angle
SciTegic.value.DoubleValue
2.720

@<SCITEGIC>MOL_PROPERTY
Pdih
SciTegic.value.DoubleValue
4.746

@<SCITEGIC>MOL_PROPERTY
Idih
SciTegic.value.DoubleValue
0.000

@<SCITEGIC>MOL_PROPERTY
Tether
SciTegic.value.DoubleValue
0.000

@<TRIPOS>MOLECULE
guest-s21_confgen4.mol2 : confsearch ligand conformer 362
          22          21           1
SMALL
USER_CHARGES
 
@<TRIPOS>ATOM
       1    C1      18.509512   22.776596   21.842608 C.2        1 MOL1         0.6145
       2    O1      19.258282   23.602043   22.326769 O.co2      1 MOL1        -0.6735
       3    O2      17.300280   22.894114   21.823178 O.co2      1 MOL1        -0.6735
       4    C2      19.119675   21.513035   21.246514 C.3        1 MOL1        -0.1985
       5    H1      20.099338   21.772644   20.827555 H          1 MOL1         0.0740
       6    H2      18.485723   21.189386   20.412237 H          1 MOL1         0.0740
       7    C3      19.266591   20.370024   22.280918 C.3        1 MOL1        -0.1882
       8    H3      19.892952   20.714289   23.115619 H          1 MOL1         0.0742
       9    H4      18.279388   20.131047   22.700313 H          1 MOL1         0.0742
      10    C4      19.886220   19.102785   21.653187 C.3        1 MOL1        -0.1880
      11    H5      20.872350   19.345407   21.233835 H          1 MOL1         0.0742
      12    H6      19.258389   18.762035   20.818388 H          1 MOL1         0.0742
      13    C5      20.031410   17.965141   22.686618 C.3        1 MOL1        -0.1880
      14    H7      20.659176   18.305506   23.521596 H          1 MOL1         0.0742
      15    H8      19.045482   17.722228   23.106221 H          1 MOL1         0.0742
      16    C6      20.650630   16.698262   22.059998 C.3        1 MOL1        -0.1856
      17    H9      21.638002   16.936843   21.640888 H          1 MOL1         0.0742
      18    H10     20.024316   16.353566   21.225497 H          1 MOL1         0.0742
      19    C7      20.793940   15.564582   23.095165 C.3        1 MOL1        -0.2871
      20    H11     19.816145   15.283755   23.508035 H          1 MOL1         0.0754
      21    H12     21.441883   15.871513   23.926652 H          1 MOL1         0.0754
      22    H13     21.235594   14.672180   22.632940 H          1 MOL1         0.0754
@<TRIPOS>BOND
    1     1     2    1
    2     1     3    2
    3     1     4    1
    4     4     5    1
    5     4     6    1
    6     4     7    1
    7     7     8    1
    8     7     9    1
    9     7    10    1
   10    10    11    1
   11    10    12    1
   12    10    13    1
   13    13    14    1
   14    13    15    1
   15    13    16    1
   16    16    17    1
   17    16    18    1
   18    16    19    1
   19    19    20    1
   20    19    21    1
   21    19    22    1
@<TRIPOS>SUBSTRUCTURE
       1 MOL1            1 RESIDUE      1      MOL     
@<SCITEGIC>MOL_PROPERTY
VConf Rank
SciTegic.value.IntegerValue
362

@<SCITEGIC>MOL_PROPERTY
Conf_Id
SciTegic.value.IntegerValue
10

@<SCITEGIC>MOL_PROPERTY
Delta U+W
SciTegic.value.DoubleValue
-1.291

@<SCITEGIC>MOL_PROPERTY
U+W
SciTegic.value.DoubleValue
-54.451

@<SCITEGIC>MOL_PROPERTY
Grad RMS
SciTegic.value.DoubleValue
0.000000

@<SCITEGIC>MOL_PROPERTY
U
SciTegic.value.DoubleValue
5.779

@<SCITEGIC>MOL_PROPERTY
W
SciTegic.value.DoubleValue
-60.230

@<SCITEGIC>MOL_PROPERTY
W(PB)
SciTegic.value.DoubleValue
-62.557

@<SCITEGIC>MOL_PROPERTY
W(SA)
SciTegic.value.DoubleValue
2.328

@<SCITEGIC>MOL_PROPERTY
Valence
SciTegic.value.DoubleValue
7.101

@<SCITEGIC>MOL_PROPERTY
Coulomb
SciTegic.value.DoubleValue
-2.079

@<SCITEGIC>MOL_PROPERTY
VdW
SciTegic.value.DoubleValue
0.757

@<SCITEGIC>MOL_PROPERTY
VdW6
SciTegic.value.DoubleValue
-6.496

@<SCITEGIC>MOL_PROPERTY
VdW12
SciTegic.value.DoubleValue
7.253

@<SCITEGIC>MOL_PROPERTY
Bond
SciTegic.value.DoubleValue
0.100

@<SCITEGIC>MOL_PROPERTY
Angle
SciTegic.value.DoubleValue
2.262

@<SCITEGIC>MOL_PROPERTY
Pdih
SciTegic.value.DoubleValue
4.738

@<SCITEGIC>MOL_PROPERTY
Idih
SciTegic.value.DoubleValue
0.001

@<SCITEGIC>MOL_PROPERTY
Tether
SciTegic.value.DoubleValue
0.000

@<TRIPOS>MOLECULE
guest-s21_confgen4.mol2 : confsearch ligand conformer 363
          22          21           1
SMALL
USER_CHARGES
 
@<TRIPOS>ATOM
       1    C1      21.388333   15.374393   22.620788 C.2        1 MOL1         0.6145
       2    O1      20.572929   14.495226   22.424230 O.co2      1 MOL1        -0.6735
       3    O2      22.583245   15.234416   22.450354 O.co2      1 MOL1        -0.6735
       4    C2      20.882076   16.734785   23.086884 C.3        1 MOL1        -0.1985
       5    H1      21.649407   17.181797   23.730335 H          1 MOL1         0.0740
       6    H2      19.992552   16.572955   23.707542 H          1 MOL1         0.0740
       7    C3      20.548243   17.687381   21.912462 C.3        1 MOL1        -0.1882
       8    H3      21.445318   17.828170   21.293635 H          1 MOL1         0.0742
       9    H4      19.788079   17.220245   21.270989 H          1 MOL1         0.0742
      10    C4      20.038061   19.057085   22.410428 C.3        1 MOL1        -0.1880
      11    H5      20.800719   19.522566   23.049596 H          1 MOL1         0.0742
      12    H6      19.146754   18.904353   23.032852 H          1 MOL1         0.0742
      13    C5      19.702748   20.002953   21.234350 C.3        1 MOL1        -0.1880
      14    H7      20.583089   20.089126   20.582808 H          1 MOL1         0.0742
      15    H8      18.904034   19.563101   20.621553 H          1 MOL1         0.0742
      16    C6      19.285818   21.421869   21.686183 C.3        1 MOL1        -0.1856
      17    H9      19.181166   22.058405   20.796742 H          1 MOL1         0.0742
      18    H10     20.085114   21.867582   22.294276 H          1 MOL1         0.0742
      19    C7      17.958170   21.447108   22.474170 C.3        1 MOL1        -0.2871
      20    H11     17.661805   22.480998   22.693622 H          1 MOL1         0.0754
      21    H12     18.049864   20.918069   23.430943 H          1 MOL1         0.0754
      22    H13     17.149900   20.979062   21.897310 H          1 MOL1         0.0754
@<TRIPOS>BOND
    1     1     2    1
    2     1     3    2
    3     1     4    1
    4     4     5    1
    5     4     6    1
    6     4     7    1
    7     7     8    1
    8     7     9    1
    9     7    10    1
   10    10    11    1
   11    10    12    1
   12    10    13    1
   13    13    14    1
   14    13    15    1
   15    13    16    1
   16    16    17    1
   17    16    18    1
   18    16    19    1
   19    19    20    1
   20    19    21    1
   21    19    22    1
@<TRIPOS>SUBSTRUCTURE
       1 MOL1            1 RESIDUE      1      MOL     
@<SCITEGIC>MOL_PROPERTY
VConf Rank
SciTegic.value.IntegerValue
363

@<SCITEGIC>MOL_PROPERTY
Conf_Id
SciTegic.value.IntegerValue
37

@<SCITEGIC>MOL_PROPERTY
Delta U+W
SciTegic.value.DoubleValue
-0.345

@<SCITEGIC>MOL_PROPERTY
U+W
SciTegic.value.DoubleValue
-53.504

@<SCITEGIC>MOL_PROPERTY
Grad RMS
SciTegic.value.DoubleValue
0.000000

@<SCITEGIC>MOL_PROPERTY
U
SciTegic.value.DoubleValue
6.751

@<SCITEGIC>MOL_PROPERTY
W
SciTegic.value.DoubleValue
-60.255

@<SCITEGIC>MOL_PROPERTY
W(PB)
SciTegic.value.DoubleValue
-62.592

@<SCITEGIC>MOL_PROPERTY
W(SA)
SciTegic.value.DoubleValue
2.336

@<SCITEGIC>MOL_PROPERTY
Valence
SciTegic.value.DoubleValue
7.602

@<SCITEGIC>MOL_PROPERTY
Coulomb
SciTegic.value.DoubleValue
-1.744

@<SCITEGIC>MOL_PROPERTY
VdW
SciTegic.value.DoubleValue
0.894

@<SCITEGIC>MOL_PROPERTY
VdW6
SciTegic.value.DoubleValue
-7.110

@<SCITEGIC>MOL_PROPERTY
VdW12
SciTegic.value.DoubleValue
8.004

@<SCITEGIC>MOL_PROPERTY
Bond
SciTegic.value.DoubleValue
0.131

@<SCITEGIC>MOL_PROPERTY
Angle
SciTegic.value.DoubleValue
2.489

@<SCITEGIC>MOL_PROPERTY
Pdih
SciTegic.value.DoubleValue
4.982

@<SCITEGIC>MOL_PROPERTY
Idih
SciTegic.value.DoubleValue
0.001

@<SCITEGIC>MOL_PROPERTY
Tether
SciTegic.value.DoubleValue
0.000

@<TRIPOS>MOLECULE
guest-s21_confgen4.mol2 : confsearch ligand conformer 364
          22          21           1
SMALL
USER_CHARGES
 
@<TRIPOS>ATOM
       1    C1      16.448915   19.167406   20.236207 C.2        1 MOL1         0.6145
       2    O1      15.608541   18.406301   20.673176 O.co2      1 MOL1        -0.6735
       3    O2      16.483355   19.540137   19.080204 O.co2      1 MOL1        -0.6735
       4    C2      17.532799   19.665195   21.185740 C.3        1 MOL1        -0.1985
       5    H1      17.097248   19.743005   22.189183 H          1 MOL1         0.0740
       6    H2      17.817806   20.678035   20.876594 H          1 MOL1         0.0740
       7    C3      18.777822   18.744702   21.213421 C.3        1 MOL1        -0.1882
       8    H3      18.473904   17.731955   21.512629 H          1 MOL1         0.0742
       9    H4      19.193563   18.666616   20.199235 H          1 MOL1         0.0742
      10    C4      19.859931   19.270246   22.181508 C.3        1 MOL1        -0.1880
      11    H5      19.432288   19.351243   23.189342 H          1 MOL1         0.0742
      12    H6      20.163354   20.281725   21.878686 H          1 MOL1         0.0742
      13    C5      21.098928   18.345894   22.208409 C.3        1 MOL1        -0.1880
      14    H7      20.807779   17.346557   22.559827 H          1 MOL1         0.0742
      15    H8      21.472208   18.218583   21.183036 H          1 MOL1         0.0742
      16    C6      22.251003   18.887345   23.086398 C.3        1 MOL1        -0.1856
      17    H9      22.549347   19.884324   22.733789 H          1 MOL1         0.0742
      18    H10     23.127613   18.237598   22.957485 H          1 MOL1         0.0742
      19    C7      21.896955   18.951873   24.587963 C.3        1 MOL1        -0.2871
      20    H11     21.566569   17.971899   24.956242 H          1 MOL1         0.0754
      21    H12     21.098768   19.679532   24.780612 H          1 MOL1         0.0754
      22    H13     22.772531   19.256177   25.175915 H          1 MOL1         0.0754
@<TRIPOS>BOND
    1     1     2    1
    2     1     3    2
    3     1     4    1
    4     4     5    1
    5     4     6    1
    6     4     7    1
    7     7     8    1
    8     7     9    1
    9     7    10    1
   10    10    11    1
   11    10    12    1
   12    10    13    1
   13    13    14    1
   14    13    15    1
   15    13    16    1
   16    16    17    1
   17    16    18    1
   18    16    19    1
   19    19    20    1
   20    19    21    1
   21    19    22    1
@<TRIPOS>SUBSTRUCTURE
       1 MOL1            1 RESIDUE      1      MOL     
@<SCITEGIC>MOL_PROPERTY
VConf Rank
SciTegic.value.IntegerValue
364

@<SCITEGIC>MOL_PROPERTY
Conf_Id
SciTegic.value.IntegerValue
38

@<SCITEGIC>MOL_PROPERTY
Delta U+W
SciTegic.value.DoubleValue
-0.439

@<SCITEGIC>MOL_PROPERTY
U+W
SciTegic.value.DoubleValue
-53.598

@<SCITEGIC>MOL_PROPERTY
Grad RMS
SciTegic.value.DoubleValue
0.000000

@<SCITEGIC>MOL_PROPERTY
U
SciTegic.value.DoubleValue
6.751

@<SCITEGIC>MOL_PROPERTY
W
SciTegic.value.DoubleValue
-60.350

@<SCITEGIC>MOL_PROPERTY
W(PB)
SciTegic.value.DoubleValue
-62.659

@<SCITEGIC>MOL_PROPERTY
W(SA)
SciTegic.value.DoubleValue
2.309

@<SCITEGIC>MOL_PROPERTY
Valence
SciTegic.value.DoubleValue
7.602

@<SCITEGIC>MOL_PROPERTY
Coulomb
SciTegic.value.DoubleValue
-1.744

@<SCITEGIC>MOL_PROPERTY
VdW
SciTegic.value.DoubleValue
0.893

@<SCITEGIC>MOL_PROPERTY
VdW6
SciTegic.value.DoubleValue
-7.110

@<SCITEGIC>MOL_PROPERTY
VdW12
SciTegic.value.DoubleValue
8.004

@<SCITEGIC>MOL_PROPERTY
Bond
SciTegic.value.DoubleValue
0.131

@<SCITEGIC>MOL_PROPERTY
Angle
SciTegic.value.DoubleValue
2.489

@<SCITEGIC>MOL_PROPERTY
Pdih
SciTegic.value.DoubleValue
4.981

@<SCITEGIC>MOL_PROPERTY
Idih
SciTegic.value.DoubleValue
0.001

@<SCITEGIC>MOL_PROPERTY
Tether
SciTegic.value.DoubleValue
0.000

@<TRIPOS>MOLECULE
guest-s21_confgen4.mol2 : confsearch ligand conformer 365
          22          21           1
SMALL
USER_CHARGES
 
@<TRIPOS>ATOM
       1    C1      16.180419   18.931786   22.996286 C.2        1 MOL1         0.6145
       2    O1      15.640351   19.682267   23.784743 O.co2      1 MOL1        -0.6735
       3    O2      15.706230   17.869194   22.646180 O.co2      1 MOL1        -0.6735
       4    C2      17.538315   19.335292   22.432734 C.3        1 MOL1        -0.1985
       5    H1      17.565936   20.429265   22.362906 H          1 MOL1         0.0740
       6    H2      17.604842   18.942027   21.412254 H          1 MOL1         0.0740
       7    C3      18.721397   18.824211   23.295709 C.3        1 MOL1        -0.1882
       8    H3      18.569124   19.156611   24.331938 H          1 MOL1         0.0742
       9    H4      18.712315   17.725714   23.318388 H          1 MOL1         0.0742
      10    C4      20.103709   19.326170   22.814074 C.3        1 MOL1        -0.1880
      11    H5      20.850836   19.032841   23.562464 H          1 MOL1         0.0742
      12    H6      20.106599   20.424253   22.784526 H          1 MOL1         0.0742
      13    C5      20.514218   18.764895   21.430428 C.3        1 MOL1        -0.1880
      14    H7      20.509544   17.666793   21.459631 H          1 MOL1         0.0742
      15    H8      19.769547   19.060036   20.680471 H          1 MOL1         0.0742
      16    C6      21.897774   19.263386   20.951476 C.3        1 MOL1        -0.1856
      17    H9      21.910293   20.361909   20.931895 H          1 MOL1         0.0742
      18    H10     22.050400   18.933279   19.914664 H          1 MOL1         0.0742
      19    C7      23.069677   18.744754   21.813055 C.3        1 MOL1        -0.2871
      20    H11     23.028632   19.148553   22.832215 H          1 MOL1         0.0754
      21    H12     24.030037   19.046789   21.375559 H          1 MOL1         0.0754
      22    H13     23.056765   17.648813   21.875279 H          1 MOL1         0.0754
@<TRIPOS>BOND
    1     1     2    1
    2     1     3    2
    3     1     4    1
    4     4     5    1
    5     4     6    1
    6     4     7    1
    7     7     8    1
    8     7     9    1
    9     7    10    1
   10    10    11    1
   11    10    12    1
   12    10    13    1
   13    13    14    1
   14    13    15    1
   15    13    16    1
   16    16    17    1
   17    16    18    1
   18    16    19    1
   19    19    20    1
   20    19    21    1
   21    19    22    1
@<TRIPOS>SUBSTRUCTURE
       1 MOL1            1 RESIDUE      1      MOL     
@<SCITEGIC>MOL_PROPERTY
VConf Rank
SciTegic.value.IntegerValue
365

@<SCITEGIC>MOL_PROPERTY
Conf_Id
SciTegic.value.IntegerValue
60

@<SCITEGIC>MOL_PROPERTY
Delta U+W
SciTegic.value.DoubleValue
0.386

@<SCITEGIC>MOL_PROPERTY
U+W
SciTegic.value.DoubleValue
-52.773

@<SCITEGIC>MOL_PROPERTY
Grad RMS
SciTegic.value.DoubleValue
0.000000

@<SCITEGIC>MOL_PROPERTY
U
SciTegic.value.DoubleValue
7.689

@<SCITEGIC>MOL_PROPERTY
W
SciTegic.value.DoubleValue
-60.463

@<SCITEGIC>MOL_PROPERTY
W(PB)
SciTegic.value.DoubleValue
-62.772

@<SCITEGIC>MOL_PROPERTY
W(SA)
SciTegic.value.DoubleValue
2.309

@<SCITEGIC>MOL_PROPERTY
Valence
SciTegic.value.DoubleValue
8.197

@<SCITEGIC>MOL_PROPERTY
Coulomb
SciTegic.value.DoubleValue
-1.561

@<SCITEGIC>MOL_PROPERTY
VdW
SciTegic.value.DoubleValue
1.053

@<SCITEGIC>MOL_PROPERTY
VdW6
SciTegic.value.DoubleValue
-7.737

@<SCITEGIC>MOL_PROPERTY
VdW12
SciTegic.value.DoubleValue
8.790

@<SCITEGIC>MOL_PROPERTY
Bond
SciTegic.value.DoubleValue
0.181

@<SCITEGIC>MOL_PROPERTY
Angle
SciTegic.value.DoubleValue
2.780

@<SCITEGIC>MOL_PROPERTY
Pdih
SciTegic.value.DoubleValue
5.235

@<SCITEGIC>MOL_PROPERTY
Idih
SciTegic.value.DoubleValue
0.001

@<SCITEGIC>MOL_PROPERTY
Tether
SciTegic.value.DoubleValue
0.000

@<TRIPOS>MOLECULE
guest-s21_confgen4.mol2 : confsearch ligand conformer 366
          22          21           1
SMALL
USER_CHARGES
 
@<TRIPOS>ATOM
       1    C1      16.666422   19.714018   24.094401 C.2        1 MOL1         0.6145
       2    O1      16.480489   20.914615   24.117403 O.co2      1 MOL1        -0.6735
       3    O2      16.121977   18.934375   24.850904 O.co2      1 MOL1        -0.6735
       4    C2      17.654288   19.157432   23.075273 C.3        1 MOL1        -0.1985
       5    H1      17.596240   19.785000   22.179030 H          1 MOL1         0.0740
       6    H2      17.320000   18.152344   22.791610 H          1 MOL1         0.0740
       7    C3      19.107313   19.105473   23.615303 C.3        1 MOL1        -0.1882
       8    H3      19.448892   20.123065   23.850095 H          1 MOL1         0.0742
       9    H4      19.109354   18.551457   24.564254 H          1 MOL1         0.0742
      10    C4      20.106196   18.428834   22.646226 C.3        1 MOL1        -0.1880
      11    H5      19.757535   17.414951   22.407177 H          1 MOL1         0.0742
      12    H6      21.062966   18.313406   23.171198 H          1 MOL1         0.0742
      13    C5      20.330567   19.226497   21.338018 C.3        1 MOL1        -0.1880
      14    H7      19.375126   19.339952   20.810439 H          1 MOL1         0.0742
      15    H8      20.677411   20.240970   21.577283 H          1 MOL1         0.0742
      16    C6      21.332423   18.552104   20.371792 C.3        1 MOL1        -0.1856
      17    H9      21.329695   19.103897   19.421654 H          1 MOL1         0.0742
      18    H10     20.994950   17.532683   20.139014 H          1 MOL1         0.0742
      19    C7      22.777234   18.510732   20.915358 C.3        1 MOL1        -0.2871
      20    H11     23.123674   19.516241   21.187489 H          1 MOL1         0.0754
      21    H12     23.461460   18.112114   20.155189 H          1 MOL1         0.0754
      22    H13     22.855243   17.867721   21.800726 H          1 MOL1         0.0754
@<TRIPOS>BOND
    1     1     2    1
    2     1     3    2
    3     1     4    1
    4     4     5    1
    5     4     6    1
    6     4     7    1
    7     7     8    1
    8     7     9    1
    9     7    10    1
   10    10    11    1
   11    10    12    1
   12    10    13    1
   13    13    14    1
   14    13    15    1
   15    13    16    1
   16    16    17    1
   17    16    18    1
   18    16    19    1
   19    19    20    1
   20    19    21    1
   21    19    22    1
@<TRIPOS>SUBSTRUCTURE
       1 MOL1            1 RESIDUE      1      MOL     
@<SCITEGIC>MOL_PROPERTY
VConf Rank
SciTegic.value.IntegerValue
366

@<SCITEGIC>MOL_PROPERTY
Conf_Id
SciTegic.value.IntegerValue
28

@<SCITEGIC>MOL_PROPERTY
Delta U+W
SciTegic.value.DoubleValue
0.351

@<SCITEGIC>MOL_PROPERTY
U+W
SciTegic.value.DoubleValue
-52.808

@<SCITEGIC>MOL_PROPERTY
Grad RMS
SciTegic.value.DoubleValue
0.000000

@<SCITEGIC>MOL_PROPERTY
U
SciTegic.value.DoubleValue
7.689

@<SCITEGIC>MOL_PROPERTY
W
SciTegic.value.DoubleValue
-60.498

@<SCITEGIC>MOL_PROPERTY
W(PB)
SciTegic.value.DoubleValue
-62.768

@<SCITEGIC>MOL_PROPERTY
W(SA)
SciTegic.value.DoubleValue
2.270

@<SCITEGIC>MOL_PROPERTY
Valence
SciTegic.value.DoubleValue
8.197

@<SCITEGIC>MOL_PROPERTY
Coulomb
SciTegic.value.DoubleValue
-1.561

@<SCITEGIC>MOL_PROPERTY
VdW
SciTegic.value.DoubleValue
1.053

@<SCITEGIC>MOL_PROPERTY
VdW6
SciTegic.value.DoubleValue
-7.737

@<SCITEGIC>MOL_PROPERTY
VdW12
SciTegic.value.DoubleValue
8.791

@<SCITEGIC>MOL_PROPERTY
Bond
SciTegic.value.DoubleValue
0.181

@<SCITEGIC>MOL_PROPERTY
Angle
SciTegic.value.DoubleValue
2.780

@<SCITEGIC>MOL_PROPERTY
Pdih
SciTegic.value.DoubleValue
5.235

@<SCITEGIC>MOL_PROPERTY
Idih
SciTegic.value.DoubleValue
0.001

@<SCITEGIC>MOL_PROPERTY
Tether
SciTegic.value.DoubleValue
0.000

@<TRIPOS>MOLECULE
guest-s21_confgen4.mol2 : confsearch ligand conformer 367
          22          21           1
SMALL
USER_CHARGES
 
@<TRIPOS>ATOM
       1    C1      22.185927   16.053615   23.122814 C.2        1 MOL1         0.6145
       2    O1      23.353987   16.171209   22.809318 O.co2      1 MOL1        -0.6735
       3    O2      21.817344   15.597760   24.187144 O.co2      1 MOL1        -0.6735
       4    C2      21.124415   16.522417   22.134008 C.3        1 MOL1        -0.1985
       5    H1      20.240122   15.885364   22.255831 H          1 MOL1         0.0740
       6    H2      21.506777   16.356113   21.119730 H          1 MOL1         0.0740
       7    C3      20.740598   18.010648   22.324108 C.3        1 MOL1        -0.1882
       8    H3      20.380533   18.155473   23.351165 H          1 MOL1         0.0742
       9    H4      21.637792   18.634229   22.207939 H          1 MOL1         0.0742
      10    C4      19.659953   18.457682   21.312462 C.3        1 MOL1        -0.1880
      11    H5      18.744374   17.869642   21.463837 H          1 MOL1         0.0742
      12    H6      20.008842   18.233314   20.295163 H          1 MOL1         0.0742
      13    C5      19.325839   19.966091   21.393903 C.3        1 MOL1        -0.1880
      14    H7      20.240439   20.554565   21.238542 H          1 MOL1         0.0742
      15    H8      18.650107   20.218027   20.565143 H          1 MOL1         0.0742
      16    C6      18.660606   20.379190   22.726233 C.3        1 MOL1        -0.1856
      17    H9      19.350674   20.208271   23.562864 H          1 MOL1         0.0742
      18    H10     17.775121   19.754551   22.907750 H          1 MOL1         0.0742
      19    C7      18.245782   21.864280   22.714307 C.3        1 MOL1        -0.2871
      20    H11     17.523860   22.064603   21.911776 H          1 MOL1         0.0754
      21    H12     19.117543   22.513969   22.561594 H          1 MOL1         0.0754
      22    H13     17.778261   22.142880   23.667657 H          1 MOL1         0.0754
@<TRIPOS>BOND
    1     1     2    1
    2     1     3    2
    3     1     4    1
    4     4     5    1
    5     4     6    1
    6     4     7    1
    7     7     8    1
    8     7     9    1
    9     7    10    1
   10    10    11    1
   11    10    12    1
   12    10    13    1
   13    13    14    1
   14    13    15    1
   15    13    16    1
   16    16    17    1
   17    16    18    1
   18    16    19    1
   19    19    20    1
   20    19    21    1
   21    19    22    1
@<TRIPOS>SUBSTRUCTURE
       1 MOL1            1 RESIDUE      1      MOL     
@<SCITEGIC>MOL_PROPERTY
VConf Rank
SciTegic.value.IntegerValue
367

@<SCITEGIC>MOL_PROPERTY
Conf_Id
SciTegic.value.IntegerValue
50

@<SCITEGIC>MOL_PROPERTY
Delta U+W
SciTegic.value.DoubleValue
-0.486

@<SCITEGIC>MOL_PROPERTY
U+W
SciTegic.value.DoubleValue
-53.646

@<SCITEGIC>MOL_PROPERTY
Grad RMS
SciTegic.value.DoubleValue
0.000000

@<SCITEGIC>MOL_PROPERTY
U
SciTegic.value.DoubleValue
7.026

@<SCITEGIC>MOL_PROPERTY
W
SciTegic.value.DoubleValue
-60.672

@<SCITEGIC>MOL_PROPERTY
W(PB)
SciTegic.value.DoubleValue
-62.964

@<SCITEGIC>MOL_PROPERTY
W(SA)
SciTegic.value.DoubleValue
2.292

@<SCITEGIC>MOL_PROPERTY
Valence
SciTegic.value.DoubleValue
7.637

@<SCITEGIC>MOL_PROPERTY
Coulomb
SciTegic.value.DoubleValue
-1.488

@<SCITEGIC>MOL_PROPERTY
VdW
SciTegic.value.DoubleValue
0.877

@<SCITEGIC>MOL_PROPERTY
VdW6
SciTegic.value.DoubleValue
-7.165

@<SCITEGIC>MOL_PROPERTY
VdW12
SciTegic.value.DoubleValue
8.043

@<SCITEGIC>MOL_PROPERTY
Bond
SciTegic.value.DoubleValue
0.134

@<SCITEGIC>MOL_PROPERTY
Angle
SciTegic.value.DoubleValue
2.513

@<SCITEGIC>MOL_PROPERTY
Pdih
SciTegic.value.DoubleValue
4.990

@<SCITEGIC>MOL_PROPERTY
Idih
SciTegic.value.DoubleValue
0.001

@<SCITEGIC>MOL_PROPERTY
Tether
SciTegic.value.DoubleValue
0.000

@<TRIPOS>MOLECULE
guest-s21_confgen4.mol2 : confsearch ligand conformer 368
          22          21           1
SMALL
USER_CHARGES
 
@<TRIPOS>ATOM
       1    C1      21.236120   21.290674   24.821573 C.2        1 MOL1         0.6145
       2    O1      20.532060   22.190213   25.235820 O.co2      1 MOL1        -0.6735
       3    O2      22.411966   21.427978   24.547734 O.co2      1 MOL1        -0.6735
       4    C2      20.604071   19.918815   24.614576 C.3        1 MOL1        -0.1985
       5    H1      19.822456   19.786240   25.372281 H          1 MOL1         0.0740
       6    H2      21.371181   19.158178   24.803318 H          1 MOL1         0.0740
       7    C3      20.010424   19.737818   23.195731 C.3        1 MOL1        -0.1882
       8    H3      19.250947   20.511925   23.018937 H          1 MOL1         0.0742
       9    H4      20.806240   19.894827   22.455803 H          1 MOL1         0.0742
      10    C4      19.380685   18.337531   23.012173 C.3        1 MOL1        -0.1880
      11    H5      18.642158   18.171229   23.808341 H          1 MOL1         0.0742
      12    H6      20.151696   17.564918   23.137068 H          1 MOL1         0.0742
      13    C5      18.678247   18.151909   21.646271 C.3        1 MOL1        -0.1880
      14    H7      18.156165   17.185304   21.652029 H          1 MOL1         0.0742
      15    H8      17.904452   18.921907   21.522674 H          1 MOL1         0.0742
      16    C6      19.648263   18.190420   20.443826 C.3        1 MOL1        -0.1856
      17    H9      20.452283   17.456493   20.592519 H          1 MOL1         0.0742
      18    H10     20.123973   19.177333   20.372679 H          1 MOL1         0.0742
      19    C7      18.918702   17.889210   19.119164 C.3        1 MOL1        -0.2871
      20    H11     18.126050   18.625349   18.931579 H          1 MOL1         0.0754
      21    H12     18.461979   16.891044   19.139792 H          1 MOL1         0.0754
      22    H13     19.619748   17.923442   18.275107 H          1 MOL1         0.0754
@<TRIPOS>BOND
    1     1     2    1
    2     1     3    2
    3     1     4    1
    4     4     5    1
    5     4     6    1
    6     4     7    1
    7     7     8    1
    8     7     9    1
    9     7    10    1
   10    10    11    1
   11    10    12    1
   12    10    13    1
   13    13    14    1
   14    13    15    1
   15    13    16    1
   16    16    17    1
   17    16    18    1
   18    16    19    1
   19    19    20    1
   20    19    21    1
   21    19    22    1
@<TRIPOS>SUBSTRUCTURE
       1 MOL1            1 RESIDUE      1      MOL     
@<SCITEGIC>MOL_PROPERTY
VConf Rank
SciTegic.value.IntegerValue
368

@<SCITEGIC>MOL_PROPERTY
Conf_Id
SciTegic.value.IntegerValue
51

@<SCITEGIC>MOL_PROPERTY
Delta U+W
SciTegic.value.DoubleValue
-0.517

@<SCITEGIC>MOL_PROPERTY
U+W
SciTegic.value.DoubleValue
-53.677

@<SCITEGIC>MOL_PROPERTY
Grad RMS
SciTegic.value.DoubleValue
0.000000

@<SCITEGIC>MOL_PROPERTY
U
SciTegic.value.DoubleValue
7.026

@<SCITEGIC>MOL_PROPERTY
W
SciTegic.value.DoubleValue
-60.703

@<SCITEGIC>MOL_PROPERTY
W(PB)
SciTegic.value.DoubleValue
-63.007

@<SCITEGIC>MOL_PROPERTY
W(SA)
SciTegic.value.DoubleValue
2.304

@<SCITEGIC>MOL_PROPERTY
Valence
SciTegic.value.DoubleValue
7.638

@<SCITEGIC>MOL_PROPERTY
Coulomb
SciTegic.value.DoubleValue
-1.488

@<SCITEGIC>MOL_PROPERTY
VdW
SciTegic.value.DoubleValue
0.877

@<SCITEGIC>MOL_PROPERTY
VdW6
SciTegic.value.DoubleValue
-7.165

@<SCITEGIC>MOL_PROPERTY
VdW12
SciTegic.value.DoubleValue
8.042

@<SCITEGIC>MOL_PROPERTY
Bond
SciTegic.value.DoubleValue
0.134

@<SCITEGIC>MOL_PROPERTY
Angle
SciTegic.value.DoubleValue
2.513

@<SCITEGIC>MOL_PROPERTY
Pdih
SciTegic.value.DoubleValue
4.990

@<SCITEGIC>MOL_PROPERTY
Idih
SciTegic.value.DoubleValue
0.001

@<SCITEGIC>MOL_PROPERTY
Tether
SciTegic.value.DoubleValue
0.000

@<TRIPOS>MOLECULE
guest-s21_confgen4.mol2 : confsearch ligand conformer 369
          22          21           1
SMALL
USER_CHARGES
 
@<TRIPOS>ATOM
       1    C1      21.282060   15.933416   21.049779 C.2        1 MOL1         0.6145
       2    O1      21.497191   15.088179   21.896062 O.co2      1 MOL1        -0.6735
       3    O2      20.499680   15.782321   20.132259 O.co2      1 MOL1        -0.6735
       4    C2      22.051723   17.248506   21.135180 C.3        1 MOL1        -0.1985
       5    H1      22.015217   17.739927   20.155344 H          1 MOL1         0.0740
       6    H2      23.102495   17.001593   21.327411 H          1 MOL1         0.0740
       7    C3      21.535959   18.210847   22.236488 C.3        1 MOL1        -0.1882
       8    H3      21.552038   17.695392   23.206901 H          1 MOL1         0.0742
       9    H4      22.226427   19.061164   22.318692 H          1 MOL1         0.0742
      10    C4      20.112254   18.736908   21.946814 C.3        1 MOL1        -0.1880
      11    H5      19.412158   17.892616   21.880137 H          1 MOL1         0.0742
      12    H6      20.098516   19.239670   20.970056 H          1 MOL1         0.0742
      13    C5      19.631613   19.716724   23.038782 C.3        1 MOL1        -0.1880
      14    H7      19.645601   19.213226   24.015205 H          1 MOL1         0.0742
      15    H8      20.328563   20.563410   23.105424 H          1 MOL1         0.0742
      16    C6      18.209581   20.241903   22.750585 C.3        1 MOL1        -0.1856
      17    H9      17.509205   19.397702   22.685006 H          1 MOL1         0.0742
      18    H10     18.192070   20.747729   21.775241 H          1 MOL1         0.0742
      19    C7      17.732763   21.219514   23.843415 C.3        1 MOL1        -0.2871
      20    H11     17.710420   20.729853   24.825827 H          1 MOL1         0.0754
      21    H12     16.720623   21.582744   23.622688 H          1 MOL1         0.0754
      22    H13     18.398474   22.090082   23.909257 H          1 MOL1         0.0754
@<TRIPOS>BOND
    1     1     2    1
    2     1     3    2
    3     1     4    1
    4     4     5    1
    5     4     6    1
    6     4     7    1
    7     7     8    1
    8     7     9    1
    9     7    10    1
   10    10    11    1
   11    10    12    1
   12    10    13    1
   13    13    14    1
   14    13    15    1
   15    13    16    1
   16    16    17    1
   17    16    18    1
   18    16    19    1
   19    19    20    1
   20    19    21    1
   21    19    22    1
@<TRIPOS>SUBSTRUCTURE
       1 MOL1            1 RESIDUE      1      MOL     
@<SCITEGIC>MOL_PROPERTY
VConf Rank
SciTegic.value.IntegerValue
369

@<SCITEGIC>MOL_PROPERTY
Conf_Id
SciTegic.value.IntegerValue
43

@<SCITEGIC>MOL_PROPERTY
Delta U+W
SciTegic.value.DoubleValue
-0.129

@<SCITEGIC>MOL_PROPERTY
U+W
SciTegic.value.DoubleValue
-53.289

@<SCITEGIC>MOL_PROPERTY
Grad RMS
SciTegic.value.DoubleValue
0.000000

@<SCITEGIC>MOL_PROPERTY
U
SciTegic.value.DoubleValue
7.937

@<SCITEGIC>MOL_PROPERTY
W
SciTegic.value.DoubleValue
-61.225

@<SCITEGIC>MOL_PROPERTY
W(PB)
SciTegic.value.DoubleValue
-63.523

@<SCITEGIC>MOL_PROPERTY
W(SA)
SciTegic.value.DoubleValue
2.297

@<SCITEGIC>MOL_PROPERTY
Valence
SciTegic.value.DoubleValue
7.358

@<SCITEGIC>MOL_PROPERTY
Coulomb
SciTegic.value.DoubleValue
-0.022

@<SCITEGIC>MOL_PROPERTY
VdW
SciTegic.value.DoubleValue
0.601

@<SCITEGIC>MOL_PROPERTY
VdW6
SciTegic.value.DoubleValue
-7.363

@<SCITEGIC>MOL_PROPERTY
VdW12
SciTegic.value.DoubleValue
7.964

@<SCITEGIC>MOL_PROPERTY
Bond
SciTegic.value.DoubleValue
0.121

@<SCITEGIC>MOL_PROPERTY
Angle
SciTegic.value.DoubleValue
2.425

@<SCITEGIC>MOL_PROPERTY
Pdih
SciTegic.value.DoubleValue
4.811

@<SCITEGIC>MOL_PROPERTY
Idih
SciTegic.value.DoubleValue
0.000

@<SCITEGIC>MOL_PROPERTY
Tether
SciTegic.value.DoubleValue
0.000

@<TRIPOS>MOLECULE
guest-s21_confgen4.mol2 : confsearch ligand conformer 370
          22          21           1
SMALL
USER_CHARGES
 
@<TRIPOS>ATOM
       1    C1      21.798219   17.008610   24.178907 C.2        1 MOL1         0.6145
       2    O1      21.251914   15.994165   24.565371 O.co2      1 MOL1        -0.6735
       3    O2      22.266590   17.845962   24.924737 O.co2      1 MOL1        -0.6735
       4    C2      21.917720   17.232205   22.673964 C.3        1 MOL1        -0.1985
       5    H1      22.258532   16.290144   22.228533 H          1 MOL1         0.0740
       6    H2      22.705637   17.973000   22.491445 H          1 MOL1         0.0740
       7    C3      20.596253   17.677694   21.995537 C.3        1 MOL1        -0.1882
       8    H3      20.737974   17.679953   20.906294 H          1 MOL1         0.0742
       9    H4      19.810185   16.940500   22.210697 H          1 MOL1         0.0742
      10    C4      20.137284   19.080624   22.452398 C.3        1 MOL1        -0.1880
      11    H5      20.931523   19.811434   22.247182 H          1 MOL1         0.0742
      12    H6      19.976771   19.081763   23.539432 H          1 MOL1         0.0742
      13    C5      18.838011   19.516721   21.741647 C.3        1 MOL1        -0.1880
      14    H7      18.996824   19.519144   20.654527 H          1 MOL1         0.0742
      15    H8      18.044267   18.785454   21.947382 H          1 MOL1         0.0742
      16    C6      18.378617   20.917359   22.197960 C.3        1 MOL1        -0.1856
      17    H9      19.169526   21.651929   21.992208 H          1 MOL1         0.0742
      18    H10     18.216992   20.918274   23.284873 H          1 MOL1         0.0742
      19    C7      17.080608   21.349194   21.486588 C.3        1 MOL1        -0.2871
      20    H11     17.222992   21.387356   20.398624 H          1 MOL1         0.0754
      21    H12     16.768643   22.346564   21.822764 H          1 MOL1         0.0754
      22    H13     16.263304   20.648187   21.701074 H          1 MOL1         0.0754
@<TRIPOS>BOND
    1     1     2    1
    2     1     3    2
    3     1     4    1
    4     4     5    1
    5     4     6    1
    6     4     7    1
    7     7     8    1
    8     7     9    1
    9     7    10    1
   10    10    11    1
   11    10    12    1
   12    10    13    1
   13    13    14    1
   14    13    15    1
   15    13    16    1
   16    16    17    1
   17    16    18    1
   18    16    19    1
   19    19    20    1
   20    19    21    1
   21    19    22    1
@<TRIPOS>SUBSTRUCTURE
       1 MOL1            1 RESIDUE      1      MOL     
@<SCITEGIC>MOL_PROPERTY
VConf Rank
SciTegic.value.IntegerValue
370

@<SCITEGIC>MOL_PROPERTY
Conf_Id
SciTegic.value.IntegerValue
44

@<SCITEGIC>MOL_PROPERTY
Delta U+W
SciTegic.value.DoubleValue
-0.155

@<SCITEGIC>MOL_PROPERTY
U+W
SciTegic.value.DoubleValue
-53.314

@<SCITEGIC>MOL_PROPERTY
Grad RMS
SciTegic.value.DoubleValue
0.000000

@<SCITEGIC>MOL_PROPERTY
U
SciTegic.value.DoubleValue
7.937

@<SCITEGIC>MOL_PROPERTY
W
SciTegic.value.DoubleValue
-61.252

@<SCITEGIC>MOL_PROPERTY
W(PB)
SciTegic.value.DoubleValue
-63.556

@<SCITEGIC>MOL_PROPERTY
W(SA)
SciTegic.value.DoubleValue
2.304

@<SCITEGIC>MOL_PROPERTY
Valence
SciTegic.value.DoubleValue
7.358

@<SCITEGIC>MOL_PROPERTY
Coulomb
SciTegic.value.DoubleValue
-0.021

@<SCITEGIC>MOL_PROPERTY
VdW
SciTegic.value.DoubleValue
0.600

@<SCITEGIC>MOL_PROPERTY
VdW6
SciTegic.value.DoubleValue
-7.363

@<SCITEGIC>MOL_PROPERTY
VdW12
SciTegic.value.DoubleValue
7.964

@<SCITEGIC>MOL_PROPERTY
Bond
SciTegic.value.DoubleValue
0.121

@<SCITEGIC>MOL_PROPERTY
Angle
SciTegic.value.DoubleValue
2.425

@<SCITEGIC>MOL_PROPERTY
Pdih
SciTegic.value.DoubleValue
4.811

@<SCITEGIC>MOL_PROPERTY
Idih
SciTegic.value.DoubleValue
0.001

@<SCITEGIC>MOL_PROPERTY
Tether
SciTegic.value.DoubleValue
0.000

@<TRIPOS>MOLECULE
guest-s21_confgen4.mol2 : confsearch ligand conformer 371
          22          21           1
SMALL
USER_CHARGES
 
@<TRIPOS>ATOM
       1    C1      20.991836   16.298802   24.184110 C.2        1 MOL1         0.6145
       2    O1      20.342669   16.121717   25.196111 O.co2      1 MOL1        -0.6735
       3    O2      22.204841   16.371017   24.167650 O.co2      1 MOL1        -0.6735
       4    C2      20.241907   16.417561   22.860171 C.3        1 MOL1        -0.1985
       5    H1      19.499199   15.611580   22.831698 H          1 MOL1         0.0740
       6    H2      20.945794   16.229574   22.040358 H          1 MOL1         0.0740
       7    C3      19.532997   17.781704   22.654779 C.3        1 MOL1        -0.1882
       8    H3      18.901472   17.713661   21.759954 H          1 MOL1         0.0742
       9    H4      18.861989   17.974370   23.503325 H          1 MOL1         0.0742
      10    C4      20.532639   18.952982   22.499756 C.3        1 MOL1        -0.1880
      11    H5      21.174933   18.778975   21.625695 H          1 MOL1         0.0742
      12    H6      21.198892   18.976119   23.373005 H          1 MOL1         0.0742
      13    C5      19.848595   20.335026   22.373810 C.3        1 MOL1        -0.1880
      14    H7      19.206230   20.508515   23.247987 H          1 MOL1         0.0742
      15    H8      20.625823   21.110963   22.401037 H          1 MOL1         0.0742
      16    C6      19.022023   20.499625   21.078391 C.3        1 MOL1        -0.1856
      17    H9      18.188384   19.785381   21.067644 H          1 MOL1         0.0742
      18    H10     19.650620   20.272731   20.206279 H          1 MOL1         0.0742
      19    C7      18.458560   21.928797   20.945291 C.3        1 MOL1        -0.2871
      20    H11     17.803560   22.172748   21.791959 H          1 MOL1         0.0754
      21    H12     17.871767   22.028817   20.022938 H          1 MOL1         0.0754
      22    H13     19.268326   22.669489   20.913498 H          1 MOL1         0.0754
@<TRIPOS>BOND
    1     1     2    1
    2     1     3    2
    3     1     4    1
    4     4     5    1
    5     4     6    1
    6     4     7    1
    7     7     8    1
    8     7     9    1
    9     7    10    1
   10    10    11    1
   11    10    12    1
   12    10    13    1
   13    13    14    1
   14    13    15    1
   15    13    16    1
   16    16    17    1
   17    16    18    1
   18    16    19    1
   19    19    20    1
   20    19    21    1
   21    19    22    1
@<TRIPOS>SUBSTRUCTURE
       1 MOL1            1 RESIDUE      1      MOL     
@<SCITEGIC>MOL_PROPERTY
VConf Rank
SciTegic.value.IntegerValue
371

@<SCITEGIC>MOL_PROPERTY
Conf_Id
SciTegic.value.IntegerValue
53

@<SCITEGIC>MOL_PROPERTY
Delta U+W
SciTegic.value.DoubleValue
0.723

@<SCITEGIC>MOL_PROPERTY
U+W
SciTegic.value.DoubleValue
-52.436

@<SCITEGIC>MOL_PROPERTY
Grad RMS
SciTegic.value.DoubleValue
0.000000

@<SCITEGIC>MOL_PROPERTY
U
SciTegic.value.DoubleValue
8.587

@<SCITEGIC>MOL_PROPERTY
W
SciTegic.value.DoubleValue
-61.022

@<SCITEGIC>MOL_PROPERTY
W(PB)
SciTegic.value.DoubleValue
-63.285

@<SCITEGIC>MOL_PROPERTY
W(SA)
SciTegic.value.DoubleValue
2.263

@<SCITEGIC>MOL_PROPERTY
Valence
SciTegic.value.DoubleValue
7.933

@<SCITEGIC>MOL_PROPERTY
Coulomb
SciTegic.value.DoubleValue
-0.124

@<SCITEGIC>MOL_PROPERTY
VdW
SciTegic.value.DoubleValue
0.778

@<SCITEGIC>MOL_PROPERTY
VdW6
SciTegic.value.DoubleValue
-7.981

@<SCITEGIC>MOL_PROPERTY
VdW12
SciTegic.value.DoubleValue
8.759

@<SCITEGIC>MOL_PROPERTY
Bond
SciTegic.value.DoubleValue
0.160

@<SCITEGIC>MOL_PROPERTY
Angle
SciTegic.value.DoubleValue
2.698

@<SCITEGIC>MOL_PROPERTY
Pdih
SciTegic.value.DoubleValue
5.074

@<SCITEGIC>MOL_PROPERTY
Idih
SciTegic.value.DoubleValue
0.001

@<SCITEGIC>MOL_PROPERTY
Tether
SciTegic.value.DoubleValue
0.000

@<TRIPOS>MOLECULE
guest-s21_confgen4.mol2 : confsearch ligand conformer 372
          22          21           1
SMALL
USER_CHARGES
 
@<TRIPOS>ATOM
       1    C1      22.197595   17.231336   23.817783 C.2        1 MOL1         0.6145
       2    O1      22.895500   16.727347   22.960174 O.co2      1 MOL1        -0.6735
       3    O2      22.430839   17.151249   25.007642 O.co2      1 MOL1        -0.6735
       4    C2      20.974376   18.026651   23.375956 C.3        1 MOL1        -0.1985
       5    H1      20.208920   17.936306   24.155826 H          1 MOL1         0.0740
       6    H2      20.580869   17.552711   22.469721 H          1 MOL1         0.0740
       7    C3      21.293526   19.519119   23.107973 C.3        1 MOL1        -0.1882
       8    H3      21.811539   19.931202   23.985054 H          1 MOL1         0.0742
       9    H4      22.001196   19.592486   22.270671 H          1 MOL1         0.0742
      10    C4      20.049929   20.395717   22.815212 C.3        1 MOL1        -0.1880
      11    H5      20.396927   21.430714   22.691432 H          1 MOL1         0.0742
      12    H6      19.382494   20.407404   23.687765 H          1 MOL1         0.0742
      13    C5      19.262925   19.995240   21.541653 C.3        1 MOL1        -0.1880
      14    H7      18.893353   20.910287   21.058851 H          1 MOL1         0.0742
      15    H8      19.936074   19.517858   20.816436 H          1 MOL1         0.0742
      16    C6      18.049512   19.082162   21.832633 C.3        1 MOL1        -0.1856
      17    H9      17.357696   19.596490   22.513847 H          1 MOL1         0.0742
      18    H10     18.369049   18.165858   22.343170 H          1 MOL1         0.0742
      19    C7      17.302053   18.705611   20.537702 C.3        1 MOL1        -0.2871
      20    H11     16.932663   19.601768   20.022158 H          1 MOL1         0.0754
      21    H12     16.440090   18.063693   20.761299 H          1 MOL1         0.0754
      22    H13     17.960864   18.160659   19.848969 H          1 MOL1         0.0754
@<TRIPOS>BOND
    1     1     2    1
    2     1     3    2
    3     1     4    1
    4     4     5    1
    5     4     6    1
    6     4     7    1
    7     7     8    1
    8     7     9    1
    9     7    10    1
   10    10    11    1
   11    10    12    1
   12    10    13    1
   13    13    14    1
   14    13    15    1
   15    13    16    1
   16    16    17    1
   17    16    18    1
   18    16    19    1
   19    19    20    1
   20    19    21    1
   21    19    22    1
@<TRIPOS>SUBSTRUCTURE
       1 MOL1            1 RESIDUE      1      MOL     
@<SCITEGIC>MOL_PROPERTY
VConf Rank
SciTegic.value.IntegerValue
372

@<SCITEGIC>MOL_PROPERTY
Conf_Id
SciTegic.value.IntegerValue
5

@<SCITEGIC>MOL_PROPERTY
Delta U+W
SciTegic.value.DoubleValue
2.167

@<SCITEGIC>MOL_PROPERTY
U+W
SciTegic.value.DoubleValue
-50.993

@<SCITEGIC>MOL_PROPERTY
Grad RMS
SciTegic.value.DoubleValue
0.000000

@<SCITEGIC>MOL_PROPERTY
U
SciTegic.value.DoubleValue
10.045

@<SCITEGIC>MOL_PROPERTY
W
SciTegic.value.DoubleValue
-61.037

@<SCITEGIC>MOL_PROPERTY
W(PB)
SciTegic.value.DoubleValue
-63.303

@<SCITEGIC>MOL_PROPERTY
W(SA)
SciTegic.value.DoubleValue
2.266

@<SCITEGIC>MOL_PROPERTY
Valence
SciTegic.value.DoubleValue
10.100

@<SCITEGIC>MOL_PROPERTY
Coulomb
SciTegic.value.DoubleValue
-0.883

@<SCITEGIC>MOL_PROPERTY
VdW
SciTegic.value.DoubleValue
0.828

@<SCITEGIC>MOL_PROPERTY
VdW6
SciTegic.value.DoubleValue
-8.177

@<SCITEGIC>MOL_PROPERTY
VdW12
SciTegic.value.DoubleValue
9.005

@<SCITEGIC>MOL_PROPERTY
Bond
SciTegic.value.DoubleValue
0.182

@<SCITEGIC>MOL_PROPERTY
Angle
SciTegic.value.DoubleValue
2.988

@<SCITEGIC>MOL_PROPERTY
Pdih
SciTegic.value.DoubleValue
6.930

@<SCITEGIC>MOL_PROPERTY
Idih
SciTegic.value.DoubleValue
0.001

@<SCITEGIC>MOL_PROPERTY
Tether
SciTegic.value.DoubleValue
0.000

@<TRIPOS>MOLECULE
guest-s21_confgen4.mol2 : confsearch ligand conformer 373
          22          21           1
SMALL
USER_CHARGES
 
@<TRIPOS>ATOM
       1    C1      18.410121   19.911344   19.516334 C.2        1 MOL1         0.6145
       2    O1      18.436780   21.125206   19.467363 O.co2      1 MOL1        -0.6735
       3    O2      17.858266   19.216672   18.685990 O.co2      1 MOL1        -0.6735
       4    C2      19.086502   19.222756   20.696315 C.3        1 MOL1        -0.1985
       5    H1      19.957527   19.825629   20.976653 H          1 MOL1         0.0740
       6    H2      19.454529   18.247303   20.356715 H          1 MOL1         0.0740
       7    C3      18.140547   19.045950   21.910832 C.3        1 MOL1        -0.1882
       8    H3      17.846206   20.035635   22.286522 H          1 MOL1         0.0742
       9    H4      17.216300   18.559690   21.569160 H          1 MOL1         0.0742
      10    C4      18.737621   18.207380   23.068837 C.3        1 MOL1        -0.1880
      11    H5      18.943410   17.183913   22.726609 H          1 MOL1         0.0742
      12    H6      17.962935   18.113047   23.842084 H          1 MOL1         0.0742
      13    C5      20.001495   18.819409   23.724392 C.3        1 MOL1        -0.1880
      14    H7      19.987317   19.913240   23.622920 H          1 MOL1         0.0742
      15    H8      19.969066   18.612344   24.802847 H          1 MOL1         0.0742
      16    C6      21.322608   18.243407   23.164356 C.3        1 MOL1        -0.1856
      17    H9      21.384710   18.401764   22.081106 H          1 MOL1         0.0742
      18    H10     21.346900   17.156757   23.324972 H          1 MOL1         0.0742
      19    C7      22.550662   18.884987   23.840812 C.3        1 MOL1        -0.2871
      20    H11     22.570820   19.969265   23.669658 H          1 MOL1         0.0754
      21    H12     23.479686   18.461008   23.438085 H          1 MOL1         0.0754
      22    H13     22.539461   18.708869   24.924412 H          1 MOL1         0.0754
@<TRIPOS>BOND
    1     1     2    1
    2     1     3    2
    3     1     4    1
    4     4     5    1
    5     4     6    1
    6     4     7    1
    7     7     8    1
    8     7     9    1
    9     7    10    1
   10    10    11    1
   11    10    12    1
   12    10    13    1
   13    13    14    1
   14    13    15    1
   15    13    16    1
   16    16    17    1
   17    16    18    1
   18    16    19    1
   19    19    20    1
   20    19    21    1
   21    19    22    1
@<TRIPOS>SUBSTRUCTURE
       1 MOL1            1 RESIDUE      1      MOL     
@<SCITEGIC>MOL_PROPERTY
VConf Rank
SciTegic.value.IntegerValue
373

@<SCITEGIC>MOL_PROPERTY
Conf_Id
SciTegic.value.IntegerValue
6

@<SCITEGIC>MOL_PROPERTY
Delta U+W
SciTegic.value.DoubleValue
2.118

@<SCITEGIC>MOL_PROPERTY
U+W
SciTegic.value.DoubleValue
-51.042

@<SCITEGIC>MOL_PROPERTY
Grad RMS
SciTegic.value.DoubleValue
0.000000

@<SCITEGIC>MOL_PROPERTY
U
SciTegic.value.DoubleValue
10.045

@<SCITEGIC>MOL_PROPERTY
W
SciTegic.value.DoubleValue
-61.086

@<SCITEGIC>MOL_PROPERTY
W(PB)
SciTegic.value.DoubleValue
-63.356

@<SCITEGIC>MOL_PROPERTY
W(SA)
SciTegic.value.DoubleValue
2.270

@<SCITEGIC>MOL_PROPERTY
Valence
SciTegic.value.DoubleValue
10.100

@<SCITEGIC>MOL_PROPERTY
Coulomb
SciTegic.value.DoubleValue
-0.883

@<SCITEGIC>MOL_PROPERTY
VdW
SciTegic.value.DoubleValue
0.828

@<SCITEGIC>MOL_PROPERTY
VdW6
SciTegic.value.DoubleValue
-8.177

@<SCITEGIC>MOL_PROPERTY
VdW12
SciTegic.value.DoubleValue
9.004

@<SCITEGIC>MOL_PROPERTY
Bond
SciTegic.value.DoubleValue
0.182

@<SCITEGIC>MOL_PROPERTY
Angle
SciTegic.value.DoubleValue
2.988

@<SCITEGIC>MOL_PROPERTY
Pdih
SciTegic.value.DoubleValue
6.930

@<SCITEGIC>MOL_PROPERTY
Idih
SciTegic.value.DoubleValue
0.001

@<SCITEGIC>MOL_PROPERTY
Tether
SciTegic.value.DoubleValue
0.000

@<TRIPOS>MOLECULE
guest-s21_confgen4.mol2 : confsearch ligand conformer 374
          22          21           1
SMALL
USER_CHARGES
 
@<TRIPOS>ATOM
       1    C1      21.741889   20.461443   21.761199 C.2        1 MOL1         0.6145
       2    O1      21.293555   21.292032   20.995292 O.co2      1 MOL1        -0.6735
       3    O2      22.433840   19.527295   21.406761 O.co2      1 MOL1        -0.6735
       4    C2      21.482251   20.638532   23.256085 C.3        1 MOL1        -0.1985
       5    H1      21.966250   21.579099   23.543506 H          1 MOL1         0.0740
       6    H2      21.997162   19.840430   23.804485 H          1 MOL1         0.0740
       7    C3      19.984044   20.694595   23.667563 C.3        1 MOL1        -0.1882
       8    H3      19.920800   21.178460   24.651583 H          1 MOL1         0.0742
       9    H4      19.429531   21.343734   22.975677 H          1 MOL1         0.0742
      10    C4      19.287874   19.315199   23.774936 C.3        1 MOL1        -0.1880
      11    H5      18.294095   19.467491   24.217864 H          1 MOL1         0.0742
      12    H6      19.842473   18.674640   24.474174 H          1 MOL1         0.0742
      13    C5      19.121895   18.585961   22.422468 C.3        1 MOL1        -0.1880
      14    H7      18.658971   19.263690   21.692105 H          1 MOL1         0.0742
      15    H8      20.106313   18.308765   22.024793 H          1 MOL1         0.0742
      16    C6      18.262244   17.311918   22.563042 C.3        1 MOL1        -0.1856
      17    H9      17.269031   17.575122   22.952410 H          1 MOL1         0.0742
      18    H10     18.723083   16.633791   23.294606 H          1 MOL1         0.0742
      19    C7      18.105606   16.581035   21.214454 C.3        1 MOL1        -0.2871
      20    H11     17.618372   17.226920   20.472292 H          1 MOL1         0.0754
      21    H12     17.493102   15.677740   21.332439 H          1 MOL1         0.0754
      22    H13     19.083104   16.278636   20.816263 H          1 MOL1         0.0754
@<TRIPOS>BOND
    1     1     2    1
    2     1     3    2
    3     1     4    1
    4     4     5    1
    5     4     6    1
    6     4     7    1
    7     7     8    1
    8     7     9    1
    9     7    10    1
   10    10    11    1
   11    10    12    1
   12    10    13    1
   13    13    14    1
   14    13    15    1
   15    13    16    1
   16    16    17    1
   17    16    18    1
   18    16    19    1
   19    19    20    1
   20    19    21    1
   21    19    22    1
@<TRIPOS>SUBSTRUCTURE
       1 MOL1            1 RESIDUE      1      MOL     
@<SCITEGIC>MOL_PROPERTY
VConf Rank
SciTegic.value.IntegerValue
374

@<SCITEGIC>MOL_PROPERTY
Conf_Id
SciTegic.value.IntegerValue
8

@<SCITEGIC>MOL_PROPERTY
Delta U+W
SciTegic.value.DoubleValue
1.886

@<SCITEGIC>MOL_PROPERTY
U+W
SciTegic.value.DoubleValue
-51.274

@<SCITEGIC>MOL_PROPERTY
Grad RMS
SciTegic.value.DoubleValue
0.000000

@<SCITEGIC>MOL_PROPERTY
U
SciTegic.value.DoubleValue
11.237

@<SCITEGIC>MOL_PROPERTY
W
SciTegic.value.DoubleValue
-62.510

@<SCITEGIC>MOL_PROPERTY
W(PB)
SciTegic.value.DoubleValue
-64.777

@<SCITEGIC>MOL_PROPERTY
W(SA)
SciTegic.value.DoubleValue
2.267

@<SCITEGIC>MOL_PROPERTY
Valence
SciTegic.value.DoubleValue
9.029

@<SCITEGIC>MOL_PROPERTY
Coulomb
SciTegic.value.DoubleValue
1.667

@<SCITEGIC>MOL_PROPERTY
VdW
SciTegic.value.DoubleValue
0.540

@<SCITEGIC>MOL_PROPERTY
VdW6
SciTegic.value.DoubleValue
-8.825

@<SCITEGIC>MOL_PROPERTY
VdW12
SciTegic.value.DoubleValue
9.365

@<SCITEGIC>MOL_PROPERTY
Bond
SciTegic.value.DoubleValue
0.186

@<SCITEGIC>MOL_PROPERTY
Angle
SciTegic.value.DoubleValue
3.195

@<SCITEGIC>MOL_PROPERTY
Pdih
SciTegic.value.DoubleValue
5.642

@<SCITEGIC>MOL_PROPERTY
Idih
SciTegic.value.DoubleValue
0.007

@<SCITEGIC>MOL_PROPERTY
Tether
SciTegic.value.DoubleValue
0.000

@<TRIPOS>MOLECULE
guest-s21_confgen4.mol2 : confsearch ligand conformer 375
          22          21           1
SMALL
USER_CHARGES
 
@<TRIPOS>ATOM
       1    C1      18.780473   20.946682   20.277705 C.2        1 MOL1         0.6145
       2    O1      18.557661   21.770990   21.142364 O.co2      1 MOL1        -0.6735
       3    O2      18.010998   20.700455   19.369637 O.co2      1 MOL1        -0.6735
       4    C2      20.111127   20.200267   20.314938 C.3        1 MOL1        -0.1985
       5    H1      20.787374   20.721440   21.001798 H          1 MOL1         0.0740
       6    H2      20.559023   20.283946   19.317887 H          1 MOL1         0.0740
       7    C3      19.987745   18.699625   20.697035 C.3        1 MOL1        -0.1882
       8    H3      19.368404   18.195523   19.942300 H          1 MOL1         0.0742
       9    H4      20.979677   18.231141   20.642963 H          1 MOL1         0.0742
      10    C4      19.376361   18.438425   22.095861 C.3        1 MOL1        -0.1880
      11    H5      19.251969   17.354614   22.213653 H          1 MOL1         0.0742
      12    H6      18.368793   18.873247   22.147436 H          1 MOL1         0.0742
      13    C5      20.239175   18.988263   23.258046 C.3        1 MOL1        -0.1880
      14    H7      21.253465   18.570936   23.198502 H          1 MOL1         0.0742
      15    H8      20.340392   20.076016   23.150891 H          1 MOL1         0.0742
      16    C6      19.641994   18.701098   24.655512 C.3        1 MOL1        -0.1856
      17    H9      18.621346   19.104117   24.712346 H          1 MOL1         0.0742
      18    H10     20.231542   19.243611   25.407370 H          1 MOL1         0.0742
      19    C7      19.631609   17.201278   25.023265 C.3        1 MOL1        -0.2871
      20    H11     18.956417   16.632427   24.372209 H          1 MOL1         0.0754
      21    H12     19.289697   17.062565   26.057070 H          1 MOL1         0.0754
      22    H13     20.637259   16.769163   24.939350 H          1 MOL1         0.0754
@<TRIPOS>BOND
    1     1     2    1
    2     1     3    2
    3     1     4    1
    4     4     5    1
    5     4     6    1
    6     4     7    1
    7     7     8    1
    8     7     9    1
    9     7    10    1
   10    10    11    1
   11    10    12    1
   12    10    13    1
   13    13    14    1
   14    13    15    1
   15    13    16    1
   16    16    17    1
   17    16    18    1
   18    16    19    1
   19    19    20    1
   20    19    21    1
   21    19    22    1
@<TRIPOS>SUBSTRUCTURE
       1 MOL1            1 RESIDUE      1      MOL     
@<SCITEGIC>MOL_PROPERTY
VConf Rank
SciTegic.value.IntegerValue
375

@<SCITEGIC>MOL_PROPERTY
Conf_Id
SciTegic.value.IntegerValue
93

@<SCITEGIC>MOL_PROPERTY
Delta U+W
SciTegic.value.DoubleValue
1.836

@<SCITEGIC>MOL_PROPERTY
U+W
SciTegic.value.DoubleValue
-51.323

@<SCITEGIC>MOL_PROPERTY
Grad RMS
SciTegic.value.DoubleValue
0.000000

@<SCITEGIC>MOL_PROPERTY
U
SciTegic.value.DoubleValue
10.427

@<SCITEGIC>MOL_PROPERTY
W
SciTegic.value.DoubleValue
-61.751

@<SCITEGIC>MOL_PROPERTY
W(PB)
SciTegic.value.DoubleValue
-63.980

@<SCITEGIC>MOL_PROPERTY
W(SA)
SciTegic.value.DoubleValue
2.230

@<SCITEGIC>MOL_PROPERTY
Valence
SciTegic.value.DoubleValue
8.446

@<SCITEGIC>MOL_PROPERTY
Coulomb
SciTegic.value.DoubleValue
1.306

@<SCITEGIC>MOL_PROPERTY
VdW
SciTegic.value.DoubleValue
0.676

@<SCITEGIC>MOL_PROPERTY
VdW6
SciTegic.value.DoubleValue
-8.928

@<SCITEGIC>MOL_PROPERTY
VdW12
SciTegic.value.DoubleValue
9.604

@<SCITEGIC>MOL_PROPERTY
Bond
SciTegic.value.DoubleValue
0.209

@<SCITEGIC>MOL_PROPERTY
Angle
SciTegic.value.DoubleValue
3.066

@<SCITEGIC>MOL_PROPERTY
Pdih
SciTegic.value.DoubleValue
5.170

@<SCITEGIC>MOL_PROPERTY
Idih
SciTegic.value.DoubleValue
0.001

@<SCITEGIC>MOL_PROPERTY
Tether
SciTegic.value.DoubleValue
0.000

@<TRIPOS>MOLECULE
guest-s21_confgen4.mol2 : confsearch ligand conformer 376
          22          21           1
SMALL
USER_CHARGES
 
@<TRIPOS>ATOM
       1    C1      18.139431   17.678870   24.684080 C.2        1 MOL1         0.6145
       2    O1      17.627378   18.220143   25.644357 O.co2      1 MOL1        -0.6735
       3    O2      19.032283   16.859177   24.771740 O.co2      1 MOL1        -0.6735
       4    C2      17.610122   18.026897   23.295602 C.3        1 MOL1        -0.1985
       5    H1      16.518642   17.930973   23.330116 H          1 MOL1         0.0740
       6    H2      17.964014   17.271537   22.585039 H          1 MOL1         0.0740
       7    C3      17.984048   19.455100   22.812315 C.3        1 MOL1        -0.1882
       8    H3      17.516630   19.639041   21.835577 H          1 MOL1         0.0742
       9    H4      17.544952   20.185886   23.505476 H          1 MOL1         0.0742
      10    C4      19.505938   19.722658   22.707453 C.3        1 MOL1        -0.1880
      11    H5      19.976955   19.575601   23.689004 H          1 MOL1         0.0742
      12    H6      19.646634   20.780503   22.452184 H          1 MOL1         0.0742
      13    C5      20.215972   18.838412   21.653221 C.3        1 MOL1        -0.1880
      14    H7      20.094657   17.781985   21.925578 H          1 MOL1         0.0742
      15    H8      19.735177   18.967695   20.674131 H          1 MOL1         0.0742
      16    C6      21.730304   19.127116   21.528958 C.3        1 MOL1        -0.1856
      17    H9      22.179813   18.367806   20.874308 H          1 MOL1         0.0742
      18    H10     22.210999   19.013661   22.510508 H          1 MOL1         0.0742
      19    C7      22.044368   20.525132   20.953004 C.3        1 MOL1        -0.2871
      20    H11     21.721565   21.322238   21.634011 H          1 MOL1         0.0754
      21    H12     21.544758   20.673347   19.986815 H          1 MOL1         0.0754
      22    H13     23.124540   20.641034   20.795861 H          1 MOL1         0.0754
@<TRIPOS>BOND
    1     1     2    1
    2     1     3    2
    3     1     4    1
    4     4     5    1
    5     4     6    1
    6     4     7    1
    7     7     8    1
    8     7     9    1
    9     7    10    1
   10    10    11    1
   11    10    12    1
   12    10    13    1
   13    13    14    1
   14    13    15    1
   15    13    16    1
   16    16    17    1
   17    16    18    1
   18    16    19    1
   19    19    20    1
   20    19    21    1
   21    19    22    1
@<TRIPOS>SUBSTRUCTURE
       1 MOL1            1 RESIDUE      1      MOL     
@<SCITEGIC>MOL_PROPERTY
VConf Rank
SciTegic.value.IntegerValue
376

@<SCITEGIC>MOL_PROPERTY
Conf_Id
SciTegic.value.IntegerValue
70

@<SCITEGIC>MOL_PROPERTY
Delta U+W
SciTegic.value.DoubleValue
1.803

@<SCITEGIC>MOL_PROPERTY
U+W
SciTegic.value.DoubleValue
-51.356

@<SCITEGIC>MOL_PROPERTY
Grad RMS
SciTegic.value.DoubleValue
0.000000

@<SCITEGIC>MOL_PROPERTY
U
SciTegic.value.DoubleValue
10.428

@<SCITEGIC>MOL_PROPERTY
W
SciTegic.value.DoubleValue
-61.784

@<SCITEGIC>MOL_PROPERTY
W(PB)
SciTegic.value.DoubleValue
-64.014

@<SCITEGIC>MOL_PROPERTY
W(SA)
SciTegic.value.DoubleValue
2.230

@<SCITEGIC>MOL_PROPERTY
Valence
SciTegic.value.DoubleValue
8.445

@<SCITEGIC>MOL_PROPERTY
Coulomb
SciTegic.value.DoubleValue
1.306

@<SCITEGIC>MOL_PROPERTY
VdW
SciTegic.value.DoubleValue
0.676

@<SCITEGIC>MOL_PROPERTY
VdW6
SciTegic.value.DoubleValue
-8.929

@<SCITEGIC>MOL_PROPERTY
VdW12
SciTegic.value.DoubleValue
9.605

@<SCITEGIC>MOL_PROPERTY
Bond
SciTegic.value.DoubleValue
0.209

@<SCITEGIC>MOL_PROPERTY
Angle
SciTegic.value.DoubleValue
3.066

@<SCITEGIC>MOL_PROPERTY
Pdih
SciTegic.value.DoubleValue
5.170

@<SCITEGIC>MOL_PROPERTY
Idih
SciTegic.value.DoubleValue
0.001

@<SCITEGIC>MOL_PROPERTY
Tether
SciTegic.value.DoubleValue
0.000

@<TRIPOS>MOLECULE
guest-s21_confgen4.mol2 : confsearch ligand conformer 377
          22          21           1
SMALL
USER_CHARGES
 
@<TRIPOS>ATOM
       1    C1      18.431893   19.442266   25.439046 C.2        1 MOL1         0.6145
       2    O1      18.551426   18.348162   25.954373 O.co2      1 MOL1        -0.6735
       3    O2      17.370632   20.025782   25.338486 O.co2      1 MOL1        -0.6735
       4    C2      19.687760   20.128329   24.908753 C.3        1 MOL1        -0.1985
       5    H1      20.469098   20.016848   25.669755 H          1 MOL1         0.0740
       6    H2      19.486956   21.202465   24.815219 H          1 MOL1         0.0740
       7    C3      20.194480   19.557720   23.558708 C.3        1 MOL1        -0.1882
       8    H3      21.164403   20.014344   23.319941 H          1 MOL1         0.0742
       9    H4      20.369742   18.479704   23.671826 H          1 MOL1         0.0742
      10    C4      19.206434   19.820269   22.397072 C.3        1 MOL1        -0.1880
      11    H5      18.978082   20.894150   22.358664 H          1 MOL1         0.0742
      12    H6      18.254209   19.308685   22.594187 H          1 MOL1         0.0742
      13    C5      19.749577   19.383777   21.015769 C.3        1 MOL1        -0.1880
      14    H7      19.043216   19.716917   20.243136 H          1 MOL1         0.0742
      15    H8      20.697875   19.899950   20.812886 H          1 MOL1         0.0742
      16    C6      19.949495   17.856767   20.887544 C.3        1 MOL1        -0.1856
      17    H9      19.014876   17.338143   21.142073 H          1 MOL1         0.0742
      18    H10     20.710740   17.513652   21.600382 H          1 MOL1         0.0742
      19    C7      20.383073   17.460987   19.461676 C.3        1 MOL1        -0.2871
      20    H11     19.624903   17.755201   18.724134 H          1 MOL1         0.0754
      21    H12     20.523838   16.374809   19.387769 H          1 MOL1         0.0754
      22    H13     21.330743   17.944870   19.191207 H          1 MOL1         0.0754
@<TRIPOS>BOND
    1     1     2    1
    2     1     3    2
    3     1     4    1
    4     4     5    1
    5     4     6    1
    6     4     7    1
    7     7     8    1
    8     7     9    1
    9     7    10    1
   10    10    11    1
   11    10    12    1
   12    10    13    1
   13    13    14    1
   14    13    15    1
   15    13    16    1
   16    16    17    1
   17    16    18    1
   18    16    19    1
   19    19    20    1
   20    19    21    1
   21    19    22    1
@<TRIPOS>SUBSTRUCTURE
       1 MOL1            1 RESIDUE      1      MOL     
@<SCITEGIC>MOL_PROPERTY
VConf Rank
SciTegic.value.IntegerValue
377

@<SCITEGIC>MOL_PROPERTY
Conf_Id
SciTegic.value.IntegerValue
85

@<SCITEGIC>MOL_PROPERTY
Delta U+W
SciTegic.value.DoubleValue
0.707

@<SCITEGIC>MOL_PROPERTY
U+W
SciTegic.value.DoubleValue
-52.452

@<SCITEGIC>MOL_PROPERTY
Grad RMS
SciTegic.value.DoubleValue
0.000000

@<SCITEGIC>MOL_PROPERTY
U
SciTegic.value.DoubleValue
8.925

@<SCITEGIC>MOL_PROPERTY
W
SciTegic.value.DoubleValue
-61.378

@<SCITEGIC>MOL_PROPERTY
W(PB)
SciTegic.value.DoubleValue
-63.661

@<SCITEGIC>MOL_PROPERTY
W(SA)
SciTegic.value.DoubleValue
2.283

@<SCITEGIC>MOL_PROPERTY
Valence
SciTegic.value.DoubleValue
7.881

@<SCITEGIC>MOL_PROPERTY
Coulomb
SciTegic.value.DoubleValue
0.349

@<SCITEGIC>MOL_PROPERTY
VdW
SciTegic.value.DoubleValue
0.695

@<SCITEGIC>MOL_PROPERTY
VdW6
SciTegic.value.DoubleValue
-8.049

@<SCITEGIC>MOL_PROPERTY
VdW12
SciTegic.value.DoubleValue
8.743

@<SCITEGIC>MOL_PROPERTY
Bond
SciTegic.value.DoubleValue
0.156

@<SCITEGIC>MOL_PROPERTY
Angle
SciTegic.value.DoubleValue
2.660

@<SCITEGIC>MOL_PROPERTY
Pdih
SciTegic.value.DoubleValue
5.064

@<SCITEGIC>MOL_PROPERTY
Idih
SciTegic.value.DoubleValue
0.001

@<SCITEGIC>MOL_PROPERTY
Tether
SciTegic.value.DoubleValue
0.000

@<TRIPOS>MOLECULE
guest-s21_confgen4.mol2 : confsearch ligand conformer 378
          22          21           1
SMALL
USER_CHARGES
 
@<TRIPOS>ATOM
       1    C1      17.677197   17.087735   20.607681 C.2        1 MOL1         0.6145
       2    O1      16.526318   17.307216   20.930550 O.co2      1 MOL1        -0.6735
       3    O2      18.057294   17.057140   19.453747 O.co2      1 MOL1        -0.6735
       4    C2      18.697621   16.812340   21.708720 C.3        1 MOL1        -0.1985
       5    H1      19.276552   15.932305   21.404799 H          1 MOL1         0.0740
       6    H2      18.160291   16.538005   22.624620 H          1 MOL1         0.0740
       7    C3      19.662354   17.994366   21.987635 C.3        1 MOL1        -0.1882
       8    H3      20.446032   17.646434   22.672250 H          1 MOL1         0.0742
       9    H4      20.158413   18.289245   21.052622 H          1 MOL1         0.0742
      10    C4      18.944483   19.214301   22.610130 C.3        1 MOL1        -0.1880
      11    H5      18.524763   18.932128   23.585278 H          1 MOL1         0.0742
      12    H6      18.090218   19.491690   21.977572 H          1 MOL1         0.0742
      13    C5      19.844310   20.464277   22.778637 C.3        1 MOL1        -0.1880
      14    H7      20.194872   20.810850   21.796842 H          1 MOL1         0.0742
      15    H8      19.214191   21.273360   23.172593 H          1 MOL1         0.0742
      16    C6      21.043560   20.275961   23.741051 C.3        1 MOL1        -0.1856
      17    H9      20.811925   19.509531   24.493475 H          1 MOL1         0.0742
      18    H10     21.198481   21.211471   24.296135 H          1 MOL1         0.0742
      19    C7      22.361107   19.930484   23.011842 C.3        1 MOL1        -0.2871
      20    H11     22.282063   18.994955   22.446652 H          1 MOL1         0.0754
      21    H12     23.180900   19.818149   23.733049 H          1 MOL1         0.0754
      22    H13     22.638775   20.727402   22.309767 H          1 MOL1         0.0754
@<TRIPOS>BOND
    1     1     2    1
    2     1     3    2
    3     1     4    1
    4     4     5    1
    5     4     6    1
    6     4     7    1
    7     7     8    1
    8     7     9    1
    9     7    10    1
   10    10    11    1
   11    10    12    1
   12    10    13    1
   13    13    14    1
   14    13    15    1
   15    13    16    1
   16    16    17    1
   17    16    18    1
   18    16    19    1
   19    19    20    1
   20    19    21    1
   21    19    22    1
@<TRIPOS>SUBSTRUCTURE
       1 MOL1            1 RESIDUE      1      MOL     
@<SCITEGIC>MOL_PROPERTY
VConf Rank
SciTegic.value.IntegerValue
378

@<SCITEGIC>MOL_PROPERTY
Conf_Id
SciTegic.value.IntegerValue
82

@<SCITEGIC>MOL_PROPERTY
Delta U+W
SciTegic.value.DoubleValue
3.438

@<SCITEGIC>MOL_PROPERTY
U+W
SciTegic.value.DoubleValue
-49.721

@<SCITEGIC>MOL_PROPERTY
Grad RMS
SciTegic.value.DoubleValue
0.000000

@<SCITEGIC>MOL_PROPERTY
U
SciTegic.value.DoubleValue
11.773

@<SCITEGIC>MOL_PROPERTY
W
SciTegic.value.DoubleValue
-61.495

@<SCITEGIC>MOL_PROPERTY
W(PB)
SciTegic.value.DoubleValue
-63.749

@<SCITEGIC>MOL_PROPERTY
W(SA)
SciTegic.value.DoubleValue
2.254

@<SCITEGIC>MOL_PROPERTY
Valence
SciTegic.value.DoubleValue
10.419

@<SCITEGIC>MOL_PROPERTY
Coulomb
SciTegic.value.DoubleValue
0.565

@<SCITEGIC>MOL_PROPERTY
VdW
SciTegic.value.DoubleValue
0.789

@<SCITEGIC>MOL_PROPERTY
VdW6
SciTegic.value.DoubleValue
-8.847

@<SCITEGIC>MOL_PROPERTY
VdW12
SciTegic.value.DoubleValue
9.636

@<SCITEGIC>MOL_PROPERTY
Bond
SciTegic.value.DoubleValue
0.200

@<SCITEGIC>MOL_PROPERTY
Angle
SciTegic.value.DoubleValue
3.187

@<SCITEGIC>MOL_PROPERTY
Pdih
SciTegic.value.DoubleValue
7.032

@<SCITEGIC>MOL_PROPERTY
Idih
SciTegic.value.DoubleValue
0.001

@<SCITEGIC>MOL_PROPERTY
Tether
SciTegic.value.DoubleValue
0.000

@<TRIPOS>MOLECULE
guest-s21_confgen4.mol2 : confsearch ligand conformer 379
          22          21           1
SMALL
USER_CHARGES
 
@<TRIPOS>ATOM
       1    C1      22.886867   17.604072   23.204439 C.2        1 MOL1         0.6145
       2    O1      23.735764   18.458696   23.043309 O.co2      1 MOL1        -0.6735
       3    O2      22.825536   16.895066   24.189573 O.co2      1 MOL1        -0.6735
       4    C2      21.856642   17.395803   22.097796 C.3        1 MOL1        -0.1985
       5    H1      21.401281   16.406058   22.223917 H          1 MOL1         0.0740
       6    H2      22.399618   17.376266   21.145542 H          1 MOL1         0.0740
       7    C3      20.756840   18.488115   22.043167 C.3        1 MOL1        -0.1882
       8    H3      21.228377   19.477408   21.964242 H          1 MOL1         0.0742
       9    H4      20.166726   18.338755   21.130280 H          1 MOL1         0.0742
      10    C4      19.817729   18.449018   23.271020 C.3        1 MOL1        -0.1880
      11    H5      20.421256   18.486710   24.188176 H          1 MOL1         0.0742
      12    H6      19.286221   17.487924   23.293314 H          1 MOL1         0.0742
      13    C5      18.790199   19.607456   23.323280 C.3        1 MOL1        -0.1880
      14    H7      18.224727   19.504514   24.259501 H          1 MOL1         0.0742
      15    H8      19.312734   20.571147   23.395278 H          1 MOL1         0.0742
      16    C6      17.778759   19.631565   22.150120 C.3        1 MOL1        -0.1856
      17    H9      16.802985   19.959240   22.534559 H          1 MOL1         0.0742
      18    H10     17.626671   18.616947   21.756891 H          1 MOL1         0.0742
      19    C7      18.189530   20.591832   21.011620 C.3        1 MOL1        -0.2871
      20    H11     18.272414   21.622133   21.381344 H          1 MOL1         0.0754
      21    H12     17.438266   20.582017   20.211417 H          1 MOL1         0.0754
      22    H13     19.152827   20.313141   20.569699 H          1 MOL1         0.0754
@<TRIPOS>BOND
    1     1     2    1
    2     1     3    2
    3     1     4    1
    4     4     5    1
    5     4     6    1
    6     4     7    1
    7     7     8    1
    8     7     9    1
    9     7    10    1
   10    10    11    1
   11    10    12    1
   12    10    13    1
   13    13    14    1
   14    13    15    1
   15    13    16    1
   16    16    17    1
   17    16    18    1
   18    16    19    1
   19    19    20    1
   20    19    21    1
   21    19    22    1
@<TRIPOS>SUBSTRUCTURE
       1 MOL1            1 RESIDUE      1      MOL     
@<SCITEGIC>MOL_PROPERTY
VConf Rank
SciTegic.value.IntegerValue
379

@<SCITEGIC>MOL_PROPERTY
Conf_Id
SciTegic.value.IntegerValue
94

@<SCITEGIC>MOL_PROPERTY
Delta U+W
SciTegic.value.DoubleValue
3.471

@<SCITEGIC>MOL_PROPERTY
U+W
SciTegic.value.DoubleValue
-49.688

@<SCITEGIC>MOL_PROPERTY
Grad RMS
SciTegic.value.DoubleValue
0.000000

@<SCITEGIC>MOL_PROPERTY
U
SciTegic.value.DoubleValue
11.773

@<SCITEGIC>MOL_PROPERTY
W
SciTegic.value.DoubleValue
-61.461

@<SCITEGIC>MOL_PROPERTY
W(PB)
SciTegic.value.DoubleValue
-63.710

@<SCITEGIC>MOL_PROPERTY
W(SA)
SciTegic.value.DoubleValue
2.248

@<SCITEGIC>MOL_PROPERTY
Valence
SciTegic.value.DoubleValue
10.419

@<SCITEGIC>MOL_PROPERTY
Coulomb
SciTegic.value.DoubleValue
0.566

@<SCITEGIC>MOL_PROPERTY
VdW
SciTegic.value.DoubleValue
0.789

@<SCITEGIC>MOL_PROPERTY
VdW6
SciTegic.value.DoubleValue
-8.847

@<SCITEGIC>MOL_PROPERTY
VdW12
SciTegic.value.DoubleValue
9.636

@<SCITEGIC>MOL_PROPERTY
Bond
SciTegic.value.DoubleValue
0.200

@<SCITEGIC>MOL_PROPERTY
Angle
SciTegic.value.DoubleValue
3.187

@<SCITEGIC>MOL_PROPERTY
Pdih
SciTegic.value.DoubleValue
7.032

@<SCITEGIC>MOL_PROPERTY
Idih
SciTegic.value.DoubleValue
0.001

@<SCITEGIC>MOL_PROPERTY
Tether
SciTegic.value.DoubleValue
0.000

@<TRIPOS>MOLECULE
guest-s21_confgen4.mol2 : confsearch ligand conformer 380
          22          21           1
SMALL
USER_CHARGES
 
@<TRIPOS>ATOM
       1    C1      21.047154   21.607246   20.590210 C.2        1 MOL1         0.6145
       2    O1      21.980463   22.361249   20.782855 O.co2      1 MOL1        -0.6735
       3    O2      20.058707   21.909984   19.951542 O.co2      1 MOL1        -0.6735
       4    C2      21.111875   20.211448   21.199711 C.3        1 MOL1        -0.1985
       5    H1      22.161607   19.895243   21.217289 H          1 MOL1         0.0740
       6    H2      20.577191   19.529303   20.529021 H          1 MOL1         0.0740
       7    C3      20.511256   20.151834   22.628052 C.3        1 MOL1        -0.1882
       8    H3      21.012165   20.903689   23.253275 H          1 MOL1         0.0742
       9    H4      19.452661   20.441744   22.594050 H          1 MOL1         0.0742
      10    C4      20.662547   18.766427   23.304938 C.3        1 MOL1        -0.1880
      11    H5      20.261947   18.824249   24.325551 H          1 MOL1         0.0742
      12    H6      21.731884   18.542152   23.417920 H          1 MOL1         0.0742
      13    C5      19.986425   17.587998   22.555719 C.3        1 MOL1        -0.1880
      14    H7      20.497723   17.424853   21.598009 H          1 MOL1         0.0742
      15    H8      20.143554   16.668547   23.135775 H          1 MOL1         0.0742
      16    C6      18.469964   17.757924   22.292281 C.3        1 MOL1        -0.1856
      17    H9      18.110482   16.880835   21.736947 H          1 MOL1         0.0742
      18    H10     18.294110   18.623589   21.639822 H          1 MOL1         0.0742
      19    C7      17.638756   17.902234   23.585367 C.3        1 MOL1        -0.2871
      20    H11     17.812209   17.054198   24.260425 H          1 MOL1         0.0754
      21    H12     16.566865   17.935464   23.351506 H          1 MOL1         0.0754
      22    H13     17.891618   18.826157   24.120515 H          1 MOL1         0.0754
@<TRIPOS>BOND
    1     1     2    1
    2     1     3    2
    3     1     4    1
    4     4     5    1
    5     4     6    1
    6     4     7    1
    7     7     8    1
    8     7     9    1
    9     7    10    1
   10    10    11    1
   11    10    12    1
   12    10    13    1
   13    13    14    1
   14    13    15    1
   15    13    16    1
   16    16    17    1
   17    16    18    1
   18    16    19    1
   19    19    20    1
   20    19    21    1
   21    19    22    1
@<TRIPOS>SUBSTRUCTURE
       1 MOL1            1 RESIDUE      1      MOL     
@<SCITEGIC>MOL_PROPERTY
VConf Rank
SciTegic.value.IntegerValue
380

@<SCITEGIC>MOL_PROPERTY
Conf_Id
SciTegic.value.IntegerValue
56

@<SCITEGIC>MOL_PROPERTY
Delta U+W
SciTegic.value.DoubleValue
0.853

@<SCITEGIC>MOL_PROPERTY
U+W
SciTegic.value.DoubleValue
-52.307

@<SCITEGIC>MOL_PROPERTY
Grad RMS
SciTegic.value.DoubleValue
0.000000

@<SCITEGIC>MOL_PROPERTY
U
SciTegic.value.DoubleValue
8.874

@<SCITEGIC>MOL_PROPERTY
W
SciTegic.value.DoubleValue
-61.181

@<SCITEGIC>MOL_PROPERTY
W(PB)
SciTegic.value.DoubleValue
-63.413

@<SCITEGIC>MOL_PROPERTY
W(SA)
SciTegic.value.DoubleValue
2.232

@<SCITEGIC>MOL_PROPERTY
Valence
SciTegic.value.DoubleValue
8.479

@<SCITEGIC>MOL_PROPERTY
Coulomb
SciTegic.value.DoubleValue
-0.357

@<SCITEGIC>MOL_PROPERTY
VdW
SciTegic.value.DoubleValue
0.753

@<SCITEGIC>MOL_PROPERTY
VdW6
SciTegic.value.DoubleValue
-9.081

@<SCITEGIC>MOL_PROPERTY
VdW12
SciTegic.value.DoubleValue
9.833

@<SCITEGIC>MOL_PROPERTY
Bond
SciTegic.value.DoubleValue
0.221

@<SCITEGIC>MOL_PROPERTY
Angle
SciTegic.value.DoubleValue
3.208

@<SCITEGIC>MOL_PROPERTY
Pdih
SciTegic.value.DoubleValue
5.050

@<SCITEGIC>MOL_PROPERTY
Idih
SciTegic.value.DoubleValue
0.000

@<SCITEGIC>MOL_PROPERTY
Tether
SciTegic.value.DoubleValue
0.000

@<TRIPOS>MOLECULE
guest-s21_confgen4.mol2 : confsearch ligand conformer 381
          22          21           1
SMALL
USER_CHARGES
 
@<TRIPOS>ATOM
       1    C1      18.356756   15.524139   20.561270 C.2        1 MOL1         0.6145
       2    O1      19.440071   14.972492   20.583998 O.co2      1 MOL1        -0.6735
       3    O2      17.348166   14.988608   20.146693 O.co2      1 MOL1        -0.6735
       4    C2      18.225374   16.960062   21.071556 C.3        1 MOL1        -0.1985
       5    H1      17.474166   16.955853   21.870078 H          1 MOL1         0.0740
       6    H2      17.818284   17.562673   20.251127 H          1 MOL1         0.0740
       7    C3      19.539534   17.601372   21.591280 C.3        1 MOL1        -0.1882
       8    H3      19.945310   16.989386   22.408781 H          1 MOL1         0.0742
       9    H4      20.289684   17.596931   20.788320 H          1 MOL1         0.0742
      10    C4      19.316554   19.047096   22.085926 C.3        1 MOL1        -0.1880
      11    H5      18.566279   19.048986   22.888556 H          1 MOL1         0.0742
      12    H6      18.910761   19.656915   21.267034 H          1 MOL1         0.0742
      13    C5      20.625003   19.683151   22.602357 C.3        1 MOL1        -0.1880
      14    H7      21.031222   19.073629   23.421256 H          1 MOL1         0.0742
      15    H8      21.375598   19.681512   21.800028 H          1 MOL1         0.0742
      16    C6      20.402897   21.127871   23.096882 C.3        1 MOL1        -0.1856
      17    H9      19.654063   21.133250   23.901056 H          1 MOL1         0.0742
      18    H10     19.998372   21.741159   22.279745 H          1 MOL1         0.0742
      19    C7      21.711867   21.759472   23.611677 C.3        1 MOL1        -0.2871
      20    H11     22.122438   21.183197   24.451169 H          1 MOL1         0.0754
      21    H12     21.535715   22.785796   23.959129 H          1 MOL1         0.0754
      22    H13     22.469294   21.795724   22.817702 H          1 MOL1         0.0754
@<TRIPOS>BOND
    1     1     2    1
    2     1     3    2
    3     1     4    1
    4     4     5    1
    5     4     6    1
    6     4     7    1
    7     7     8    1
    8     7     9    1
    9     7    10    1
   10    10    11    1
   11    10    12    1
   12    10    13    1
   13    13    14    1
   14    13    15    1
   15    13    16    1
   16    16    17    1
   17    16    18    1
   18    16    19    1
   19    19    20    1
   20    19    21    1
   21    19    22    1
@<TRIPOS>SUBSTRUCTURE
       1 MOL1            1 RESIDUE      1      MOL     
@<SCITEGIC>MOL_PROPERTY
VConf Rank
SciTegic.value.IntegerValue
381

@<SCITEGIC>MOL_PROPERTY
Conf_Id
SciTegic.value.IntegerValue
0

@<SCITEGIC>MOL_PROPERTY
Delta U+W
SciTegic.value.DoubleValue
0.000

@<SCITEGIC>MOL_PROPERTY
U+W
SciTegic.value.DoubleValue
-53.159

@<SCITEGIC>MOL_PROPERTY
Grad RMS
SciTegic.value.DoubleValue
0.000000

@<SCITEGIC>MOL_PROPERTY
U
SciTegic.value.DoubleValue
6.763

@<SCITEGIC>MOL_PROPERTY
W
SciTegic.value.DoubleValue
-59.922

@<SCITEGIC>MOL_PROPERTY
W(PB)
SciTegic.value.DoubleValue
-62.256

@<SCITEGIC>MOL_PROPERTY
W(SA)
SciTegic.value.DoubleValue
2.334

@<SCITEGIC>MOL_PROPERTY
Valence
SciTegic.value.DoubleValue
7.600

@<SCITEGIC>MOL_PROPERTY
Coulomb
SciTegic.value.DoubleValue
-2.139

@<SCITEGIC>MOL_PROPERTY
VdW
SciTegic.value.DoubleValue
1.302

@<SCITEGIC>MOL_PROPERTY
VdW6
SciTegic.value.DoubleValue
-6.786

@<SCITEGIC>MOL_PROPERTY
VdW12
SciTegic.value.DoubleValue
8.088

@<SCITEGIC>MOL_PROPERTY
Bond
SciTegic.value.DoubleValue
0.134

@<SCITEGIC>MOL_PROPERTY
Angle
SciTegic.value.DoubleValue
2.720

@<SCITEGIC>MOL_PROPERTY
Pdih
SciTegic.value.DoubleValue
4.746

@<SCITEGIC>MOL_PROPERTY
Idih
SciTegic.value.DoubleValue
0.000

@<SCITEGIC>MOL_PROPERTY
Tether
SciTegic.value.DoubleValue
0.000

@<TRIPOS>MOLECULE
guest-s21_confgen4.mol2 : confsearch ligand conformer 382
          22          21           1
SMALL
USER_CHARGES
 
@<TRIPOS>ATOM
       1    C1      15.891679   19.182959   23.106313 C.2        1 MOL1         0.6145
       2    O1      15.389410   18.113826   23.391116 O.co2      1 MOL1        -0.6735
       3    O2      15.290915   20.082865   22.553427 O.co2      1 MOL1        -0.6735
       4    C2      17.363239   19.398982   23.441064 C.3        1 MOL1        -0.1985
       5    H1      17.590124   18.839447   24.356545 H          1 MOL1         0.0740
       6    H2      17.508855   20.462299   23.666488 H          1 MOL1         0.0740
       7    C3      18.311078   18.960290   22.297735 C.3        1 MOL1        -0.1882
       8    H3      18.143706   17.897220   22.075382 H          1 MOL1         0.0742
       9    H4      18.062441   19.520022   21.385346 H          1 MOL1         0.0742
      10    C4      19.794203   19.188995   22.660936 C.3        1 MOL1        -0.1880
      11    H5      20.039109   18.629121   23.574027 H          1 MOL1         0.0742
      12    H6      19.957816   20.252343   22.883858 H          1 MOL1         0.0742
      13    C5      20.736629   18.750826   21.519388 C.3        1 MOL1        -0.1880
      14    H7      20.573312   17.687519   21.296156 H          1 MOL1         0.0742
      15    H8      20.492035   19.310470   20.606098 H          1 MOL1         0.0742
      16    C6      22.219109   18.979085   21.881632 C.3        1 MOL1        -0.1856
      17    H9      22.468133   18.419155   22.793741 H          1 MOL1         0.0742
      18    H10     22.386861   20.042110   22.103699 H          1 MOL1         0.0742
      19    C7      23.156952   18.540292   20.739157 C.3        1 MOL1        -0.2871
      20    H11     22.950790   19.107472   19.821980 H          1 MOL1         0.0754
      21    H12     23.032540   17.472290   20.517121 H          1 MOL1         0.0754
      22    H13     24.206344   18.709391   21.013521 H          1 MOL1         0.0754
@<TRIPOS>BOND
    1     1     2    1
    2     1     3    2
    3     1     4    1
    4     4     5    1
    5     4     6    1
    6     4     7    1
    7     7     8    1
    8     7     9    1
    9     7    10    1
   10    10    11    1
   11    10    12    1
   12    10    13    1
   13    13    14    1
   14    13    15    1
   15    13    16    1
   16    16    17    1
   17    16    18    1
   18    16    19    1
   19    19    20    1
   20    19    21    1
   21    19    22    1
@<TRIPOS>SUBSTRUCTURE
       1 MOL1            1 RESIDUE      1      MOL     
@<SCITEGIC>MOL_PROPERTY
VConf Rank
SciTegic.value.IntegerValue
382

@<SCITEGIC>MOL_PROPERTY
Conf_Id
SciTegic.value.IntegerValue
10

@<SCITEGIC>MOL_PROPERTY
Delta U+W
SciTegic.value.DoubleValue
-1.291

@<SCITEGIC>MOL_PROPERTY
U+W
SciTegic.value.DoubleValue
-54.451

@<SCITEGIC>MOL_PROPERTY
Grad RMS
SciTegic.value.DoubleValue
0.000000

@<SCITEGIC>MOL_PROPERTY
U
SciTegic.value.DoubleValue
5.779

@<SCITEGIC>MOL_PROPERTY
W
SciTegic.value.DoubleValue
-60.230

@<SCITEGIC>MOL_PROPERTY
W(PB)
SciTegic.value.DoubleValue
-62.557

@<SCITEGIC>MOL_PROPERTY
W(SA)
SciTegic.value.DoubleValue
2.328

@<SCITEGIC>MOL_PROPERTY
Valence
SciTegic.value.DoubleValue
7.101

@<SCITEGIC>MOL_PROPERTY
Coulomb
SciTegic.value.DoubleValue
-2.079

@<SCITEGIC>MOL_PROPERTY
VdW
SciTegic.value.DoubleValue
0.757

@<SCITEGIC>MOL_PROPERTY
VdW6
SciTegic.value.DoubleValue
-6.496

@<SCITEGIC>MOL_PROPERTY
VdW12
SciTegic.value.DoubleValue
7.253

@<SCITEGIC>MOL_PROPERTY
Bond
SciTegic.value.DoubleValue
0.100

@<SCITEGIC>MOL_PROPERTY
Angle
SciTegic.value.DoubleValue
2.262

@<SCITEGIC>MOL_PROPERTY
Pdih
SciTegic.value.DoubleValue
4.738

@<SCITEGIC>MOL_PROPERTY
Idih
SciTegic.value.DoubleValue
0.001

@<SCITEGIC>MOL_PROPERTY
Tether
SciTegic.value.DoubleValue
0.000

@<TRIPOS>MOLECULE
guest-s21_confgen4.mol2 : confsearch ligand conformer 383
          22          21           1
SMALL
USER_CHARGES
 
@<TRIPOS>ATOM
       1    C1      19.785479   16.310894   19.345897 C.2        1 MOL1         0.6145
       2    O1      20.694881   16.449597   18.552045 O.co2      1 MOL1        -0.6735
       3    O2      19.234799   15.249051   19.559668 O.co2      1 MOL1        -0.6735
       4    C2      19.323924   17.532484   20.132594 C.3        1 MOL1        -0.1985
       5    H1      18.249609   17.427294   20.326061 H          1 MOL1         0.0740
       6    H2      19.453784   18.416378   19.496572 H          1 MOL1         0.0740
       7    C3      20.091456   17.715437   21.465101 C.3        1 MOL1        -0.1882
       8    H3      19.962258   16.816819   22.084216 H          1 MOL1         0.0742
       9    H4      21.166270   17.806686   21.255336 H          1 MOL1         0.0742
      10    C4      19.605938   18.958289   22.242234 C.3        1 MOL1        -0.1880
      11    H5      18.531833   18.863343   22.452322 H          1 MOL1         0.0742
      12    H6      19.732740   19.848525   21.612497 H          1 MOL1         0.0742
      13    C5      20.377675   19.138562   23.569707 C.3        1 MOL1        -0.1880
      14    H7      20.299616   18.213394   24.156993 H          1 MOL1         0.0742
      15    H8      21.446126   19.284695   23.359961 H          1 MOL1         0.0742
      16    C6      19.854580   20.311890   24.430509 C.3        1 MOL1        -0.1856
      17    H9      20.373089   20.296899   25.399096 H          1 MOL1         0.0742
      18    H10     18.787412   20.165949   24.647680 H          1 MOL1         0.0742
      19    C7      20.067000   21.693514   23.774612 C.3        1 MOL1        -0.2871
      20    H11     19.762065   22.494700   24.460204 H          1 MOL1         0.0754
      21    H12     19.473313   21.797488   22.857863 H          1 MOL1         0.0754
      22    H13     21.123573   21.849759   23.520885 H          1 MOL1         0.0754
@<TRIPOS>BOND
    1     1     2    1
    2     1     3    2
    3     1     4    1
    4     4     5    1
    5     4     6    1
    6     4     7    1
    7     7     8    1
    8     7     9    1
    9     7    10    1
   10    10    11    1
   11    10    12    1
   12    10    13    1
   13    13    14    1
   14    13    15    1
   15    13    16    1
   16    16    17    1
   17    16    18    1
   18    16    19    1
   19    19    20    1
   20    19    21    1
   21    19    22    1
@<TRIPOS>SUBSTRUCTURE
       1 MOL1            1 RESIDUE      1      MOL     
@<SCITEGIC>MOL_PROPERTY
VConf Rank
SciTegic.value.IntegerValue
383

@<SCITEGIC>MOL_PROPERTY
Conf_Id
SciTegic.value.IntegerValue
37

@<SCITEGIC>MOL_PROPERTY
Delta U+W
SciTegic.value.DoubleValue
-0.345

@<SCITEGIC>MOL_PROPERTY
U+W
SciTegic.value.DoubleValue
-53.504

@<SCITEGIC>MOL_PROPERTY
Grad RMS
SciTegic.value.DoubleValue
0.000000

@<SCITEGIC>MOL_PROPERTY
U
SciTegic.value.DoubleValue
6.751

@<SCITEGIC>MOL_PROPERTY
W
SciTegic.value.DoubleValue
-60.255

@<SCITEGIC>MOL_PROPERTY
W(PB)
SciTegic.value.DoubleValue
-62.592

@<SCITEGIC>MOL_PROPERTY
W(SA)
SciTegic.value.DoubleValue
2.336

@<SCITEGIC>MOL_PROPERTY
Valence
SciTegic.value.DoubleValue
7.602

@<SCITEGIC>MOL_PROPERTY
Coulomb
SciTegic.value.DoubleValue
-1.744

@<SCITEGIC>MOL_PROPERTY
VdW
SciTegic.value.DoubleValue
0.894

@<SCITEGIC>MOL_PROPERTY
VdW6
SciTegic.value.DoubleValue
-7.110

@<SCITEGIC>MOL_PROPERTY
VdW12
SciTegic.value.DoubleValue
8.004

@<SCITEGIC>MOL_PROPERTY
Bond
SciTegic.value.DoubleValue
0.131

@<SCITEGIC>MOL_PROPERTY
Angle
SciTegic.value.DoubleValue
2.489

@<SCITEGIC>MOL_PROPERTY
Pdih
SciTegic.value.DoubleValue
4.982

@<SCITEGIC>MOL_PROPERTY
Idih
SciTegic.value.DoubleValue
0.001

@<SCITEGIC>MOL_PROPERTY
Tether
SciTegic.value.DoubleValue
0.000

@<TRIPOS>MOLECULE
guest-s21_confgen4.mol2 : confsearch ligand conformer 384
          22          21           1
SMALL
USER_CHARGES
 
@<TRIPOS>ATOM
       1    C1      20.733978   22.094521   24.376827 C.2        1 MOL1         0.6145
       2    O1      21.473492   22.865487   23.797878 O.co2      1 MOL1        -0.6735
       3    O2      20.692771   21.981309   25.585935 O.co2      1 MOL1        -0.6735
       4    C2      19.822875   21.204547   23.538943 C.3        1 MOL1        -0.1985
       5    H1      19.545335   21.757487   22.633467 H          1 MOL1         0.0740
       6    H2      18.901354   21.029314   24.107043 H          1 MOL1         0.0740
       7    C3      20.481956   19.855323   23.160311 C.3        1 MOL1        -0.1882
       8    H3      21.409237   20.048050   22.603035 H          1 MOL1         0.0742
       9    H4      20.765975   19.320619   24.077336 H          1 MOL1         0.0742
      10    C4      19.539757   18.973038   22.312853 C.3        1 MOL1        -0.1880
      11    H5      19.256688   19.519136   21.403558 H          1 MOL1         0.0742
      12    H6      18.614753   18.780214   22.873246 H          1 MOL1         0.0742
      13    C5      20.203702   17.629121   21.934268 C.3        1 MOL1        -0.1880
      14    H7      21.101832   17.817053   21.330131 H          1 MOL1         0.0742
      15    H8      20.544425   17.128113   22.850693 H          1 MOL1         0.0742
      16    C6      19.259649   16.669996   21.172590 C.3        1 MOL1        -0.1856
      17    H9      18.362893   16.474523   21.776684 H          1 MOL1         0.0742
      18    H10     19.766018   15.702985   21.047226 H          1 MOL1         0.0742
      19    C7      18.844417   17.197321   19.782007 C.3        1 MOL1        -0.2871
      20    H11     19.726043   17.428448   19.170083 H          1 MOL1         0.0754
      21    H12     18.233804   18.105175   19.863594 H          1 MOL1         0.0754
      22    H13     18.250274   16.444567   19.247895 H          1 MOL1         0.0754
@<TRIPOS>BOND
    1     1     2    1
    2     1     3    2
    3     1     4    1
    4     4     5    1
    5     4     6    1
    6     4     7    1
    7     7     8    1
    8     7     9    1
    9     7    10    1
   10    10    11    1
   11    10    12    1
   12    10    13    1
   13    13    14    1
   14    13    15    1
   15    13    16    1
   16    16    17    1
   17    16    18    1
   18    16    19    1
   19    19    20    1
   20    19    21    1
   21    19    22    1
@<TRIPOS>SUBSTRUCTURE
       1 MOL1            1 RESIDUE      1      MOL     
@<SCITEGIC>MOL_PROPERTY
VConf Rank
SciTegic.value.IntegerValue
384

@<SCITEGIC>MOL_PROPERTY
Conf_Id
SciTegic.value.IntegerValue
38

@<SCITEGIC>MOL_PROPERTY
Delta U+W
SciTegic.value.DoubleValue
-0.439

@<SCITEGIC>MOL_PROPERTY
U+W
SciTegic.value.DoubleValue
-53.598

@<SCITEGIC>MOL_PROPERTY
Grad RMS
SciTegic.value.DoubleValue
0.000000

@<SCITEGIC>MOL_PROPERTY
U
SciTegic.value.DoubleValue
6.751

@<SCITEGIC>MOL_PROPERTY
W
SciTegic.value.DoubleValue
-60.350

@<SCITEGIC>MOL_PROPERTY
W(PB)
SciTegic.value.DoubleValue
-62.659

@<SCITEGIC>MOL_PROPERTY
W(SA)
SciTegic.value.DoubleValue
2.309

@<SCITEGIC>MOL_PROPERTY
Valence
SciTegic.value.DoubleValue
7.602

@<SCITEGIC>MOL_PROPERTY
Coulomb
SciTegic.value.DoubleValue
-1.744

@<SCITEGIC>MOL_PROPERTY
VdW
SciTegic.value.DoubleValue
0.893

@<SCITEGIC>MOL_PROPERTY
VdW6
SciTegic.value.DoubleValue
-7.110

@<SCITEGIC>MOL_PROPERTY
VdW12
SciTegic.value.DoubleValue
8.004

@<SCITEGIC>MOL_PROPERTY
Bond
SciTegic.value.DoubleValue
0.131

@<SCITEGIC>MOL_PROPERTY
Angle
SciTegic.value.DoubleValue
2.489

@<SCITEGIC>MOL_PROPERTY
Pdih
SciTegic.value.DoubleValue
4.981

@<SCITEGIC>MOL_PROPERTY
Idih
SciTegic.value.DoubleValue
0.001

@<SCITEGIC>MOL_PROPERTY
Tether
SciTegic.value.DoubleValue
0.000

@<TRIPOS>MOLECULE
guest-s21_confgen4.mol2 : confsearch ligand conformer 385
          22          21           1
SMALL
USER_CHARGES
 
@<TRIPOS>ATOM
       1    C1      22.679927   16.511448   22.008433 C.2        1 MOL1         0.6145
       2    O1      22.640302   15.514268   21.315163 O.co2      1 MOL1        -0.6735
       3    O2      23.428374   16.642133   22.956737 O.co2      1 MOL1        -0.6735
       4    C2      21.721936   17.652254   21.684233 C.3        1 MOL1        -0.1985
       5    H1      21.556076   17.659254   20.600324 H          1 MOL1         0.0740
       6    H2      22.223635   18.591293   21.943006 H          1 MOL1         0.0740
       7    C3      20.368557   17.529345   22.431807 C.3        1 MOL1        -0.1882
       8    H3      19.942679   16.537577   22.225721 H          1 MOL1         0.0742
       9    H4      20.542113   17.572623   23.515920 H          1 MOL1         0.0742
      10    C4      19.333963   18.605539   22.024200 C.3        1 MOL1        -0.1880
      11    H5      18.375773   18.350374   22.494402 H          1 MOL1         0.0742
      12    H6      19.169129   18.565126   20.938906 H          1 MOL1         0.0742
      13    C5      19.743504   20.040574   22.437689 C.3        1 MOL1        -0.1880
      14    H7      19.910042   20.080395   23.522761 H          1 MOL1         0.0742
      15    H8      20.700054   20.298209   21.965761 H          1 MOL1         0.0742
      16    C6      18.707096   21.115285   22.033990 C.3        1 MOL1        -0.1856
      17    H9      18.529078   21.071047   20.950641 H          1 MOL1         0.0742
      18    H10     19.132585   22.107592   22.237779 H          1 MOL1         0.0742
      19    C7      17.365215   20.988459   22.787597 C.3        1 MOL1        -0.2871
      20    H11     16.840567   20.062649   22.521053 H          1 MOL1         0.0754
      21    H12     16.703909   21.827894   22.536715 H          1 MOL1         0.0754
      22    H13     17.522447   20.995500   23.874037 H          1 MOL1         0.0754
@<TRIPOS>BOND
    1     1     2    1
    2     1     3    2
    3     1     4    1
    4     4     5    1
    5     4     6    1
    6     4     7    1
    7     7     8    1
    8     7     9    1
    9     7    10    1
   10    10    11    1
   11    10    12    1
   12    10    13    1
   13    13    14    1
   14    13    15    1
   15    13    16    1
   16    16    17    1
   17    16    18    1
   18    16    19    1
   19    19    20    1
   20    19    21    1
   21    19    22    1
@<TRIPOS>SUBSTRUCTURE
       1 MOL1            1 RESIDUE      1      MOL     
@<SCITEGIC>MOL_PROPERTY
VConf Rank
SciTegic.value.IntegerValue
385

@<SCITEGIC>MOL_PROPERTY
Conf_Id
SciTegic.value.IntegerValue
60

@<SCITEGIC>MOL_PROPERTY
Delta U+W
SciTegic.value.DoubleValue
0.386

@<SCITEGIC>MOL_PROPERTY
U+W
SciTegic.value.DoubleValue
-52.773

@<SCITEGIC>MOL_PROPERTY
Grad RMS
SciTegic.value.DoubleValue
0.000000

@<SCITEGIC>MOL_PROPERTY
U
SciTegic.value.DoubleValue
7.689

@<SCITEGIC>MOL_PROPERTY
W
SciTegic.value.DoubleValue
-60.463

@<SCITEGIC>MOL_PROPERTY
W(PB)
SciTegic.value.DoubleValue
-62.772

@<SCITEGIC>MOL_PROPERTY
W(SA)
SciTegic.value.DoubleValue
2.309

@<SCITEGIC>MOL_PROPERTY
Valence
SciTegic.value.DoubleValue
8.197

@<SCITEGIC>MOL_PROPERTY
Coulomb
SciTegic.value.DoubleValue
-1.561

@<SCITEGIC>MOL_PROPERTY
VdW
SciTegic.value.DoubleValue
1.053

@<SCITEGIC>MOL_PROPERTY
VdW6
SciTegic.value.DoubleValue
-7.737

@<SCITEGIC>MOL_PROPERTY
VdW12
SciTegic.value.DoubleValue
8.790

@<SCITEGIC>MOL_PROPERTY
Bond
SciTegic.value.DoubleValue
0.181

@<SCITEGIC>MOL_PROPERTY
Angle
SciTegic.value.DoubleValue
2.780

@<SCITEGIC>MOL_PROPERTY
Pdih
SciTegic.value.DoubleValue
5.235

@<SCITEGIC>MOL_PROPERTY
Idih
SciTegic.value.DoubleValue
0.001

@<SCITEGIC>MOL_PROPERTY
Tether
SciTegic.value.DoubleValue
0.000

@<TRIPOS>MOLECULE
guest-s21_confgen4.mol2 : confsearch ligand conformer 386
          22          21           1
SMALL
USER_CHARGES
 
@<TRIPOS>ATOM
       1    C1      21.064743   18.949680   18.662611 C.2        1 MOL1         0.6145
       2    O1      20.329022   19.629760   17.975050 O.co2      1 MOL1        -0.6735
       3    O2      21.836466   18.126563   18.211520 O.co2      1 MOL1        -0.6735
       4    C2      20.999952   19.122454   20.175965 C.3        1 MOL1        -0.1985
       5    H1      20.769503   20.173810   20.380921 H          1 MOL1         0.0740
       6    H2      21.997790   18.921940   20.584045 H          1 MOL1         0.0740
       7    C3      19.952830   18.191628   20.841330 C.3        1 MOL1        -0.1882
       8    H3      18.950883   18.434493   20.461311 H          1 MOL1         0.0742
       9    H4      20.158013   17.156694   20.534313 H          1 MOL1         0.0742
      10    C4      19.956301   18.258053   22.387389 C.3        1 MOL1        -0.1880
      11    H5      20.961211   18.022824   22.763542 H          1 MOL1         0.0742
      12    H6      19.291070   17.469894   22.762359 H          1 MOL1         0.0742
      13    C5      19.496520   19.627431   22.945439 C.3        1 MOL1        -0.1880
      14    H7      20.162782   20.416137   22.573798 H          1 MOL1         0.0742
      15    H8      18.492369   19.863406   22.567684 H          1 MOL1         0.0742
      16    C6      19.495824   19.691836   24.490743 C.3        1 MOL1        -0.1856
      17    H9      19.292925   20.726745   24.799029 H          1 MOL1         0.0742
      18    H10     20.495916   19.445068   24.873125 H          1 MOL1         0.0742
      19    C7      18.445973   18.766585   25.143718 C.3        1 MOL1        -0.2871
      20    H11     17.441955   18.972293   24.750324 H          1 MOL1         0.0754
      21    H12     18.421230   18.921675   26.230113 H          1 MOL1         0.0754
      22    H13     18.676176   17.708912   24.965507 H          1 MOL1         0.0754
@<TRIPOS>BOND
    1     1     2    1
    2     1     3    2
    3     1     4    1
    4     4     5    1
    5     4     6    1
    6     4     7    1
    7     7     8    1
    8     7     9    1
    9     7    10    1
   10    10    11    1
   11    10    12    1
   12    10    13    1
   13    13    14    1
   14    13    15    1
   15    13    16    1
   16    16    17    1
   17    16    18    1
   18    16    19    1
   19    19    20    1
   20    19    21    1
   21    19    22    1
@<TRIPOS>SUBSTRUCTURE
       1 MOL1            1 RESIDUE      1      MOL     
@<SCITEGIC>MOL_PROPERTY
VConf Rank
SciTegic.value.IntegerValue
386

@<SCITEGIC>MOL_PROPERTY
Conf_Id
SciTegic.value.IntegerValue
28

@<SCITEGIC>MOL_PROPERTY
Delta U+W
SciTegic.value.DoubleValue
0.351

@<SCITEGIC>MOL_PROPERTY
U+W
SciTegic.value.DoubleValue
-52.808

@<SCITEGIC>MOL_PROPERTY
Grad RMS
SciTegic.value.DoubleValue
0.000000

@<SCITEGIC>MOL_PROPERTY
U
SciTegic.value.DoubleValue
7.689

@<SCITEGIC>MOL_PROPERTY
W
SciTegic.value.DoubleValue
-60.498

@<SCITEGIC>MOL_PROPERTY
W(PB)
SciTegic.value.DoubleValue
-62.768

@<SCITEGIC>MOL_PROPERTY
W(SA)
SciTegic.value.DoubleValue
2.270

@<SCITEGIC>MOL_PROPERTY
Valence
SciTegic.value.DoubleValue
8.197

@<SCITEGIC>MOL_PROPERTY
Coulomb
SciTegic.value.DoubleValue
-1.561

@<SCITEGIC>MOL_PROPERTY
VdW
SciTegic.value.DoubleValue
1.053

@<SCITEGIC>MOL_PROPERTY
VdW6
SciTegic.value.DoubleValue
-7.737

@<SCITEGIC>MOL_PROPERTY
VdW12
SciTegic.value.DoubleValue
8.791

@<SCITEGIC>MOL_PROPERTY
Bond
SciTegic.value.DoubleValue
0.181

@<SCITEGIC>MOL_PROPERTY
Angle
SciTegic.value.DoubleValue
2.780

@<SCITEGIC>MOL_PROPERTY
Pdih
SciTegic.value.DoubleValue
5.235

@<SCITEGIC>MOL_PROPERTY
Idih
SciTegic.value.DoubleValue
0.001

@<SCITEGIC>MOL_PROPERTY
Tether
SciTegic.value.DoubleValue
0.000

@<TRIPOS>MOLECULE
guest-s21_confgen4.mol2 : confsearch ligand conformer 387
          22          21           1
SMALL
USER_CHARGES
 
@<TRIPOS>ATOM
       1    C1      18.455277   22.331939   22.275786 C.2        1 MOL1         0.6145
       2    O1      18.605917   22.995642   21.269170 O.co2      1 MOL1        -0.6735
       3    O2      17.415747   22.287542   22.903369 O.co2      1 MOL1        -0.6735
       4    C2      19.629475   21.492925   22.767352 C.3        1 MOL1        -0.1985
       5    H1      19.574602   21.437754   23.861242 H          1 MOL1         0.0740
       6    H2      20.555818   22.023020   22.515352 H          1 MOL1         0.0740
       7    C3      19.646199   20.067998   22.161062 C.3        1 MOL1        -0.1882
       8    H3      18.701900   19.565949   22.409484 H          1 MOL1         0.0742
       9    H4      19.692292   20.140503   21.065652 H          1 MOL1         0.0742
      10    C4      20.843492   19.238298   22.679857 C.3        1 MOL1        -0.1880
      11    H5      20.768951   19.121071   23.769669 H          1 MOL1         0.0742
      12    H6      21.771894   19.794094   22.489794 H          1 MOL1         0.0742
      13    C5      20.961967   17.845753   22.016273 C.3        1 MOL1        -0.1880
      14    H7      21.040617   17.962720   20.926749 H          1 MOL1         0.0742
      15    H8      21.901001   17.381392   22.347198 H          1 MOL1         0.0742
      16    C6      19.788187   16.899370   22.355230 C.3        1 MOL1        -0.1856
      17    H9      18.847385   17.307778   21.963500 H          1 MOL1         0.0742
      18    H10     19.675962   16.823775   23.445596 H          1 MOL1         0.0742
      19    C7      20.007972   15.492122   21.764415 C.3        1 MOL1        -0.2871
      20    H11     20.922761   15.035866   22.164850 H          1 MOL1         0.0754
      21    H12     20.096331   15.535067   20.670919 H          1 MOL1         0.0754
      22    H13     19.165150   14.833314   22.010771 H          1 MOL1         0.0754
@<TRIPOS>BOND
    1     1     2    1
    2     1     3    2
    3     1     4    1
    4     4     5    1
    5     4     6    1
    6     4     7    1
    7     7     8    1
    8     7     9    1
    9     7    10    1
   10    10    11    1
   11    10    12    1
   12    10    13    1
   13    13    14    1
   14    13    15    1
   15    13    16    1
   16    16    17    1
   17    16    18    1
   18    16    19    1
   19    19    20    1
   20    19    21    1
   21    19    22    1
@<TRIPOS>SUBSTRUCTURE
       1 MOL1            1 RESIDUE      1      MOL     
@<SCITEGIC>MOL_PROPERTY
VConf Rank
SciTegic.value.IntegerValue
387

@<SCITEGIC>MOL_PROPERTY
Conf_Id
SciTegic.value.IntegerValue
50

@<SCITEGIC>MOL_PROPERTY
Delta U+W
SciTegic.value.DoubleValue
-0.486

@<SCITEGIC>MOL_PROPERTY
U+W
SciTegic.value.DoubleValue
-53.646

@<SCITEGIC>MOL_PROPERTY
Grad RMS
SciTegic.value.DoubleValue
0.000000

@<SCITEGIC>MOL_PROPERTY
U
SciTegic.value.DoubleValue
7.026

@<SCITEGIC>MOL_PROPERTY
W
SciTegic.value.DoubleValue
-60.672

@<SCITEGIC>MOL_PROPERTY
W(PB)
SciTegic.value.DoubleValue
-62.964

@<SCITEGIC>MOL_PROPERTY
W(SA)
SciTegic.value.DoubleValue
2.292

@<SCITEGIC>MOL_PROPERTY
Valence
SciTegic.value.DoubleValue
7.637

@<SCITEGIC>MOL_PROPERTY
Coulomb
SciTegic.value.DoubleValue
-1.488

@<SCITEGIC>MOL_PROPERTY
VdW
SciTegic.value.DoubleValue
0.877

@<SCITEGIC>MOL_PROPERTY
VdW6
SciTegic.value.DoubleValue
-7.165

@<SCITEGIC>MOL_PROPERTY
VdW12
SciTegic.value.DoubleValue
8.043

@<SCITEGIC>MOL_PROPERTY
Bond
SciTegic.value.DoubleValue
0.134

@<SCITEGIC>MOL_PROPERTY
Angle
SciTegic.value.DoubleValue
2.513

@<SCITEGIC>MOL_PROPERTY
Pdih
SciTegic.value.DoubleValue
4.990

@<SCITEGIC>MOL_PROPERTY
Idih
SciTegic.value.DoubleValue
0.001

@<SCITEGIC>MOL_PROPERTY
Tether
SciTegic.value.DoubleValue
0.000

@<TRIPOS>MOLECULE
guest-s21_confgen4.mol2 : confsearch ligand conformer 388
          22          21           1
SMALL
USER_CHARGES
 
@<TRIPOS>ATOM
       1    C1      20.555409   16.584822   24.975709 C.2        1 MOL1         0.6145
       2    O1      20.657763   15.417344   24.654789 O.co2      1 MOL1        -0.6735
       3    O2      19.989555   16.958535   25.983976 O.co2      1 MOL1        -0.6735
       4    C2      21.152235   17.640439   24.051696 C.3        1 MOL1        -0.1985
       5    H1      22.041526   17.211547   23.574382 H          1 MOL1         0.0740
       6    H2      21.489286   18.482110   24.668652 H          1 MOL1         0.0740
       7    C3      20.152631   18.133266   22.976424 C.3        1 MOL1        -0.1882
       8    H3      19.817906   17.277978   22.373310 H          1 MOL1         0.0742
       9    H4      19.264135   18.539041   23.477813 H          1 MOL1         0.0742
      10    C4      20.782118   19.205450   22.057057 C.3        1 MOL1        -0.1880
      11    H5      21.710122   18.805582   21.625922 H          1 MOL1         0.0742
      12    H6      21.068980   20.082760   22.652897 H          1 MOL1         0.0742
      13    C5      19.854853   19.646340   20.899752 C.3        1 MOL1        -0.1880
      14    H7      20.422983   20.307744   20.231397 H          1 MOL1         0.0742
      15    H8      19.570941   18.769883   20.301297 H          1 MOL1         0.0742
      16    C6      18.584146   20.386129   21.375470 C.3        1 MOL1        -0.1856
      17    H9      18.866138   21.231958   22.017545 H          1 MOL1         0.0742
      18    H10     17.961106   19.716339   21.982563 H          1 MOL1         0.0742
      19    C7      17.751589   20.902581   20.184738 C.3        1 MOL1        -0.2871
      20    H11     17.432608   20.073213   19.539924 H          1 MOL1         0.0754
      21    H12     18.332115   21.607377   19.575141 H          1 MOL1         0.0754
      22    H13     16.851722   21.422320   20.538544 H          1 MOL1         0.0754
@<TRIPOS>BOND
    1     1     2    1
    2     1     3    2
    3     1     4    1
    4     4     5    1
    5     4     6    1
    6     4     7    1
    7     7     8    1
    8     7     9    1
    9     7    10    1
   10    10    11    1
   11    10    12    1
   12    10    13    1
   13    13    14    1
   14    13    15    1
   15    13    16    1
   16    16    17    1
   17    16    18    1
   18    16    19    1
   19    19    20    1
   20    19    21    1
   21    19    22    1
@<TRIPOS>SUBSTRUCTURE
       1 MOL1            1 RESIDUE      1      MOL     
@<SCITEGIC>MOL_PROPERTY
VConf Rank
SciTegic.value.IntegerValue
388

@<SCITEGIC>MOL_PROPERTY
Conf_Id
SciTegic.value.IntegerValue
51

@<SCITEGIC>MOL_PROPERTY
Delta U+W
SciTegic.value.DoubleValue
-0.517

@<SCITEGIC>MOL_PROPERTY
U+W
SciTegic.value.DoubleValue
-53.677

@<SCITEGIC>MOL_PROPERTY
Grad RMS
SciTegic.value.DoubleValue
0.000000

@<SCITEGIC>MOL_PROPERTY
U
SciTegic.value.DoubleValue
7.026

@<SCITEGIC>MOL_PROPERTY
W
SciTegic.value.DoubleValue
-60.703

@<SCITEGIC>MOL_PROPERTY
W(PB)
SciTegic.value.DoubleValue
-63.007

@<SCITEGIC>MOL_PROPERTY
W(SA)
SciTegic.value.DoubleValue
2.304

@<SCITEGIC>MOL_PROPERTY
Valence
SciTegic.value.DoubleValue
7.638

@<SCITEGIC>MOL_PROPERTY
Coulomb
SciTegic.value.DoubleValue
-1.488

@<SCITEGIC>MOL_PROPERTY
VdW
SciTegic.value.DoubleValue
0.877

@<SCITEGIC>MOL_PROPERTY
VdW6
SciTegic.value.DoubleValue
-7.165

@<SCITEGIC>MOL_PROPERTY
VdW12
SciTegic.value.DoubleValue
8.042

@<SCITEGIC>MOL_PROPERTY
Bond
SciTegic.value.DoubleValue
0.134

@<SCITEGIC>MOL_PROPERTY
Angle
SciTegic.value.DoubleValue
2.513

@<SCITEGIC>MOL_PROPERTY
Pdih
SciTegic.value.DoubleValue
4.990

@<SCITEGIC>MOL_PROPERTY
Idih
SciTegic.value.DoubleValue
0.001

@<SCITEGIC>MOL_PROPERTY
Tether
SciTegic.value.DoubleValue
0.000

@<TRIPOS>MOLECULE
guest-s21_confgen4.mol2 : confsearch ligand conformer 389
          22          21           1
SMALL
USER_CHARGES
 
@<TRIPOS>ATOM
       1    C1      20.298910   17.987952   19.016286 C.2        1 MOL1         0.6145
       2    O1      20.580794   18.927651   18.299063 O.co2      1 MOL1        -0.6735
       3    O2      21.009974   17.012572   19.157048 O.co2      1 MOL1        -0.6735
       4    C2      18.969953   18.028675   19.765519 C.3        1 MOL1        -0.1985
       5    H1      18.709793   17.008504   20.072887 H          1 MOL1         0.0740
       6    H2      18.201573   18.351125   19.053017 H          1 MOL1         0.0740
       7    C3      18.967138   18.975246   20.993928 C.3        1 MOL1        -0.1882
       8    H3      19.256723   19.986227   20.675009 H          1 MOL1         0.0742
       9    H4      17.943380   19.048280   21.385244 H          1 MOL1         0.0742
      10    C4      19.909226   18.491423   22.119083 C.3        1 MOL1        -0.1880
      11    H5      20.938820   18.432199   21.739823 H          1 MOL1         0.0742
      12    H6      19.623849   17.475594   22.425132 H          1 MOL1         0.0742
      13    C5      19.866938   19.430743   23.343558 C.3        1 MOL1        -0.1880
      14    H7      20.152462   20.446335   23.036709 H          1 MOL1         0.0742
      15    H8      18.838822   19.489381   23.726438 H          1 MOL1         0.0742
      16    C6      20.808101   18.948638   24.467317 C.3        1 MOL1        -0.1856
      17    H9      21.837934   18.890464   24.088421 H          1 MOL1         0.0742
      18    H10     20.524459   17.933530   24.778066 H          1 MOL1         0.0742
      19    C7      20.763691   19.889415   25.688104 C.3        1 MOL1        -0.2871
      20    H11     21.073599   20.905872   25.412110 H          1 MOL1         0.0754
      21    H12     21.438320   19.531821   26.476829 H          1 MOL1         0.0754
      22    H13     19.750176   19.941779   26.106961 H          1 MOL1         0.0754
@<TRIPOS>BOND
    1     1     2    1
    2     1     3    2
    3     1     4    1
    4     4     5    1
    5     4     6    1
    6     4     7    1
    7     7     8    1
    8     7     9    1
    9     7    10    1
   10    10    11    1
   11    10    12    1
   12    10    13    1
   13    13    14    1
   14    13    15    1
   15    13    16    1
   16    16    17    1
   17    16    18    1
   18    16    19    1
   19    19    20    1
   20    19    21    1
   21    19    22    1
@<TRIPOS>SUBSTRUCTURE
       1 MOL1            1 RESIDUE      1      MOL     
@<SCITEGIC>MOL_PROPERTY
VConf Rank
SciTegic.value.IntegerValue
389

@<SCITEGIC>MOL_PROPERTY
Conf_Id
SciTegic.value.IntegerValue
43

@<SCITEGIC>MOL_PROPERTY
Delta U+W
SciTegic.value.DoubleValue
-0.129

@<SCITEGIC>MOL_PROPERTY
U+W
SciTegic.value.DoubleValue
-53.289

@<SCITEGIC>MOL_PROPERTY
Grad RMS
SciTegic.value.DoubleValue
0.000000

@<SCITEGIC>MOL_PROPERTY
U
SciTegic.value.DoubleValue
7.937

@<SCITEGIC>MOL_PROPERTY
W
SciTegic.value.DoubleValue
-61.225

@<SCITEGIC>MOL_PROPERTY
W(PB)
SciTegic.value.DoubleValue
-63.523

@<SCITEGIC>MOL_PROPERTY
W(SA)
SciTegic.value.DoubleValue
2.297

@<SCITEGIC>MOL_PROPERTY
Valence
SciTegic.value.DoubleValue
7.358

@<SCITEGIC>MOL_PROPERTY
Coulomb
SciTegic.value.DoubleValue
-0.022

@<SCITEGIC>MOL_PROPERTY
VdW
SciTegic.value.DoubleValue
0.601

@<SCITEGIC>MOL_PROPERTY
VdW6
SciTegic.value.DoubleValue
-7.363

@<SCITEGIC>MOL_PROPERTY
VdW12
SciTegic.value.DoubleValue
7.964

@<SCITEGIC>MOL_PROPERTY
Bond
SciTegic.value.DoubleValue
0.121

@<SCITEGIC>MOL_PROPERTY
Angle
SciTegic.value.DoubleValue
2.425

@<SCITEGIC>MOL_PROPERTY
Pdih
SciTegic.value.DoubleValue
4.811

@<SCITEGIC>MOL_PROPERTY
Idih
SciTegic.value.DoubleValue
0.000

@<SCITEGIC>MOL_PROPERTY
Tether
SciTegic.value.DoubleValue
0.000

@<TRIPOS>MOLECULE
guest-s21_confgen4.mol2 : confsearch ligand conformer 390
          22          21           1
SMALL
USER_CHARGES
 
@<TRIPOS>ATOM
       1    C1      17.085123   18.475940   20.146247 C.2        1 MOL1         0.6145
       2    O1      16.111801   17.984365   20.682811 O.co2      1 MOL1        -0.6735
       3    O2      17.716409   17.926441   19.265157 O.co2      1 MOL1        -0.6735
       4    C2      17.525922   19.867320   20.592216 C.3        1 MOL1        -0.1985
       5    H1      16.627602   20.493255   20.649394 H          1 MOL1         0.0740
       6    H2      18.164600   20.299149   19.812140 H          1 MOL1         0.0740
       7    C3      18.259997   19.888853   21.958110 C.3        1 MOL1        -0.1882
       8    H3      18.415216   20.932675   22.262878 H          1 MOL1         0.0742
       9    H4      17.619369   19.427986   22.722865 H          1 MOL1         0.0742
      10    C4      19.623655   19.163704   21.911359 C.3        1 MOL1        -0.1880
      11    H5      20.255283   19.619553   21.136593 H          1 MOL1         0.0742
      12    H6      19.474821   18.113716   21.623644 H          1 MOL1         0.0742
      13    C5      20.350500   19.224559   23.272039 C.3        1 MOL1        -0.1880
      14    H7      20.503070   20.273610   23.560610 H          1 MOL1         0.0742
      15    H8      19.718271   18.768489   24.046245 H          1 MOL1         0.0742
      16    C6      21.712068   18.499924   23.226338 C.3        1 MOL1        -0.1856
      17    H9      22.347934   18.954539   22.454029 H          1 MOL1         0.0742
      18    H10     21.563196   17.449598   22.939712 H          1 MOL1         0.0742
      19    C7      22.434666   18.562233   24.586973 C.3        1 MOL1        -0.2871
      20    H11     22.624649   19.602110   24.883553 H          1 MOL1         0.0754
      21    H12     23.400234   18.042421   24.536377 H          1 MOL1         0.0754
      22    H13     21.834000   18.085796   25.372854 H          1 MOL1         0.0754
@<TRIPOS>BOND
    1     1     2    1
    2     1     3    2
    3     1     4    1
    4     4     5    1
    5     4     6    1
    6     4     7    1
    7     7     8    1
    8     7     9    1
    9     7    10    1
   10    10    11    1
   11    10    12    1
   12    10    13    1
   13    13    14    1
   14    13    15    1
   15    13    16    1
   16    16    17    1
   17    16    18    1
   18    16    19    1
   19    19    20    1
   20    19    21    1
   21    19    22    1
@<TRIPOS>SUBSTRUCTURE
       1 MOL1            1 RESIDUE      1      MOL     
@<SCITEGIC>MOL_PROPERTY
VConf Rank
SciTegic.value.IntegerValue
390

@<SCITEGIC>MOL_PROPERTY
Conf_Id
SciTegic.value.IntegerValue
44

@<SCITEGIC>MOL_PROPERTY
Delta U+W
SciTegic.value.DoubleValue
-0.155

@<SCITEGIC>MOL_PROPERTY
U+W
SciTegic.value.DoubleValue
-53.314

@<SCITEGIC>MOL_PROPERTY
Grad RMS
SciTegic.value.DoubleValue
0.000000

@<SCITEGIC>MOL_PROPERTY
U
SciTegic.value.DoubleValue
7.937

@<SCITEGIC>MOL_PROPERTY
W
SciTegic.value.DoubleValue
-61.252

@<SCITEGIC>MOL_PROPERTY
W(PB)
SciTegic.value.DoubleValue
-63.556

@<SCITEGIC>MOL_PROPERTY
W(SA)
SciTegic.value.DoubleValue
2.304

@<SCITEGIC>MOL_PROPERTY
Valence
SciTegic.value.DoubleValue
7.358

@<SCITEGIC>MOL_PROPERTY
Coulomb
SciTegic.value.DoubleValue
-0.021

@<SCITEGIC>MOL_PROPERTY
VdW
SciTegic.value.DoubleValue
0.600

@<SCITEGIC>MOL_PROPERTY
VdW6
SciTegic.value.DoubleValue
-7.363

@<SCITEGIC>MOL_PROPERTY
VdW12
SciTegic.value.DoubleValue
7.964

@<SCITEGIC>MOL_PROPERTY
Bond
SciTegic.value.DoubleValue
0.121

@<SCITEGIC>MOL_PROPERTY
Angle
SciTegic.value.DoubleValue
2.425

@<SCITEGIC>MOL_PROPERTY
Pdih
SciTegic.value.DoubleValue
4.811

@<SCITEGIC>MOL_PROPERTY
Idih
SciTegic.value.DoubleValue
0.001

@<SCITEGIC>MOL_PROPERTY
Tether
SciTegic.value.DoubleValue
0.000

@<TRIPOS>MOLECULE
guest-s21_confgen4.mol2 : confsearch ligand conformer 391
          22          21           1
SMALL
USER_CHARGES
 
@<TRIPOS>ATOM
       1    C1      16.341618   19.795551   21.724346 C.2        1 MOL1         0.6145
       2    O1      15.937452   20.638381   22.501012 O.co2      1 MOL1        -0.6735
       3    O2      15.763632   18.748690   21.507824 O.co2      1 MOL1        -0.6735
       4    C2      17.635889   20.077684   20.966339 C.3        1 MOL1        -0.1985
       5    H1      17.575798   21.104883   20.587814 H          1 MOL1         0.0740
       6    H2      17.680138   19.418857   20.090623 H          1 MOL1         0.0740
       7    C3      18.918779   19.916299   21.822944 C.3        1 MOL1        -0.1882
       8    H3      19.772951   20.287148   21.242404 H          1 MOL1         0.0742
       9    H4      18.841995   20.551476   22.716284 H          1 MOL1         0.0742
      10    C4      19.171576   18.448333   22.242923 C.3        1 MOL1        -0.1880
      11    H5      19.290131   17.821947   21.348279 H          1 MOL1         0.0742
      12    H6      18.287162   18.067390   22.771775 H          1 MOL1         0.0742
      13    C5      20.401660   18.273761   23.165010 C.3        1 MOL1        -0.1880
      14    H7      20.282771   18.900500   24.059427 H          1 MOL1         0.0742
      15    H8      20.427322   17.233223   23.516468 H          1 MOL1         0.0742
      16    C6      21.744092   18.601726   22.473100 C.3        1 MOL1        -0.1856
      17    H9      21.772812   19.660581   22.184625 H          1 MOL1         0.0742
      18    H10     21.838095   18.014486   21.549246 H          1 MOL1         0.0742
      19    C7      22.943193   18.301250   23.394842 C.3        1 MOL1        -0.2871
      20    H11     22.888791   18.896209   24.315955 H          1 MOL1         0.0754
      21    H12     23.888234   18.542217   22.890961 H          1 MOL1         0.0754
      22    H13     22.968966   17.239561   23.673246 H          1 MOL1         0.0754
@<TRIPOS>BOND
    1     1     2    1
    2     1     3    2
    3     1     4    1
    4     4     5    1
    5     4     6    1
    6     4     7    1
    7     7     8    1
    8     7     9    1
    9     7    10    1
   10    10    11    1
   11    10    12    1
   12    10    13    1
   13    13    14    1
   14    13    15    1
   15    13    16    1
   16    16    17    1
   17    16    18    1
   18    16    19    1
   19    19    20    1
   20    19    21    1
   21    19    22    1
@<TRIPOS>SUBSTRUCTURE
       1 MOL1            1 RESIDUE      1      MOL     
@<SCITEGIC>MOL_PROPERTY
VConf Rank
SciTegic.value.IntegerValue
391

@<SCITEGIC>MOL_PROPERTY
Conf_Id
SciTegic.value.IntegerValue
53

@<SCITEGIC>MOL_PROPERTY
Delta U+W
SciTegic.value.DoubleValue
0.723

@<SCITEGIC>MOL_PROPERTY
U+W
SciTegic.value.DoubleValue
-52.436

@<SCITEGIC>MOL_PROPERTY
Grad RMS
SciTegic.value.DoubleValue
0.000000

@<SCITEGIC>MOL_PROPERTY
U
SciTegic.value.DoubleValue
8.587

@<SCITEGIC>MOL_PROPERTY
W
SciTegic.value.DoubleValue
-61.022

@<SCITEGIC>MOL_PROPERTY
W(PB)
SciTegic.value.DoubleValue
-63.285

@<SCITEGIC>MOL_PROPERTY
W(SA)
SciTegic.value.DoubleValue
2.263

@<SCITEGIC>MOL_PROPERTY
Valence
SciTegic.value.DoubleValue
7.933

@<SCITEGIC>MOL_PROPERTY
Coulomb
SciTegic.value.DoubleValue
-0.124

@<SCITEGIC>MOL_PROPERTY
VdW
SciTegic.value.DoubleValue
0.778

@<SCITEGIC>MOL_PROPERTY
VdW6
SciTegic.value.DoubleValue
-7.981

@<SCITEGIC>MOL_PROPERTY
VdW12
SciTegic.value.DoubleValue
8.759

@<SCITEGIC>MOL_PROPERTY
Bond
SciTegic.value.DoubleValue
0.160

@<SCITEGIC>MOL_PROPERTY
Angle
SciTegic.value.DoubleValue
2.698

@<SCITEGIC>MOL_PROPERTY
Pdih
SciTegic.value.DoubleValue
5.074

@<SCITEGIC>MOL_PROPERTY
Idih
SciTegic.value.DoubleValue
0.001

@<SCITEGIC>MOL_PROPERTY
Tether
SciTegic.value.DoubleValue
0.000

@<TRIPOS>MOLECULE
guest-s21_confgen4.mol2 : confsearch ligand conformer 392
          22          21           1
SMALL
USER_CHARGES
 
@<TRIPOS>ATOM
       1    C1      21.175786   21.915539   23.122557 C.2        1 MOL1         0.6145
       2    O1      20.881847   22.734291   22.274139 O.co2      1 MOL1        -0.6735
       3    O2      21.817394   22.181020   24.119774 O.co2      1 MOL1        -0.6735
       4    C2      20.694337   20.481037   22.937061 C.3        1 MOL1        -0.1985
       5    H1      21.428623   19.812119   23.401446 H          1 MOL1         0.0740
       6    H2      20.688333   20.270189   21.861777 H          1 MOL1         0.0740
       7    C3      19.288608   20.236813   23.541557 C.3        1 MOL1        -0.1882
       8    H3      19.288181   20.585605   24.583557 H          1 MOL1         0.0742
       9    H4      18.553960   20.857027   23.009690 H          1 MOL1         0.0742
      10    C4      18.831912   18.756413   23.518921 C.3        1 MOL1        -0.1880
      11    H5      17.852141   18.705265   24.013269 H          1 MOL1         0.0742
      12    H6      19.507290   18.143656   24.131578 H          1 MOL1         0.0742
      13    C5      18.689489   18.146188   22.101512 C.3        1 MOL1        -0.1880
      14    H7      17.828224   17.464122   22.101231 H          1 MOL1         0.0742
      15    H8      18.455031   18.934386   21.372996 H          1 MOL1         0.0742
      16    C6      19.934304   17.347967   21.649812 C.3        1 MOL1        -0.1856
      17    H9      20.121727   16.528343   22.357120 H          1 MOL1         0.0742
      18    H10     20.827227   17.984261   21.663402 H          1 MOL1         0.0742
      19    C7      19.749336   16.765665   20.234170 C.3        1 MOL1        -0.2871
      20    H11     18.884768   16.090049   20.196789 H          1 MOL1         0.0754
      21    H12     20.637650   16.196497   19.930890 H          1 MOL1         0.0754
      22    H13     19.591820   17.565415   19.498680 H          1 MOL1         0.0754
@<TRIPOS>BOND
    1     1     2    1
    2     1     3    2
    3     1     4    1
    4     4     5    1
    5     4     6    1
    6     4     7    1
    7     7     8    1
    8     7     9    1
    9     7    10    1
   10    10    11    1
   11    10    12    1
   12    10    13    1
   13    13    14    1
   14    13    15    1
   15    13    16    1
   16    16    17    1
   17    16    18    1
   18    16    19    1
   19    19    20    1
   20    19    21    1
   21    19    22    1
@<TRIPOS>SUBSTRUCTURE
       1 MOL1            1 RESIDUE      1      MOL     
@<SCITEGIC>MOL_PROPERTY
VConf Rank
SciTegic.value.IntegerValue
392

@<SCITEGIC>MOL_PROPERTY
Conf_Id
SciTegic.value.IntegerValue
5

@<SCITEGIC>MOL_PROPERTY
Delta U+W
SciTegic.value.DoubleValue
2.167

@<SCITEGIC>MOL_PROPERTY
U+W
SciTegic.value.DoubleValue
-50.993

@<SCITEGIC>MOL_PROPERTY
Grad RMS
SciTegic.value.DoubleValue
0.000000

@<SCITEGIC>MOL_PROPERTY
U
SciTegic.value.DoubleValue
10.045

@<SCITEGIC>MOL_PROPERTY
W
SciTegic.value.DoubleValue
-61.037

@<SCITEGIC>MOL_PROPERTY
W(PB)
SciTegic.value.DoubleValue
-63.303

@<SCITEGIC>MOL_PROPERTY
W(SA)
SciTegic.value.DoubleValue
2.266

@<SCITEGIC>MOL_PROPERTY
Valence
SciTegic.value.DoubleValue
10.100

@<SCITEGIC>MOL_PROPERTY
Coulomb
SciTegic.value.DoubleValue
-0.883

@<SCITEGIC>MOL_PROPERTY
VdW
SciTegic.value.DoubleValue
0.828

@<SCITEGIC>MOL_PROPERTY
VdW6
SciTegic.value.DoubleValue
-8.177

@<SCITEGIC>MOL_PROPERTY
VdW12
SciTegic.value.DoubleValue
9.005

@<SCITEGIC>MOL_PROPERTY
Bond
SciTegic.value.DoubleValue
0.182

@<SCITEGIC>MOL_PROPERTY
Angle
SciTegic.value.DoubleValue
2.988

@<SCITEGIC>MOL_PROPERTY
Pdih
SciTegic.value.DoubleValue
6.930

@<SCITEGIC>MOL_PROPERTY
Idih
SciTegic.value.DoubleValue
0.001

@<SCITEGIC>MOL_PROPERTY
Tether
SciTegic.value.DoubleValue
0.000

@<TRIPOS>MOLECULE
guest-s21_confgen4.mol2 : confsearch ligand conformer 393
          22          21           1
SMALL
USER_CHARGES
 
@<TRIPOS>ATOM
       1    C1      18.591393   21.959455   21.901418 C.2        1 MOL1         0.6145
       2    O1      19.300059   22.576662   21.131082 O.co2      1 MOL1        -0.6735
       3    O2      17.625426   22.441051   22.459592 O.co2      1 MOL1        -0.6735
       4    C2      18.946794   20.507766   22.201902 C.3        1 MOL1        -0.1985
       5    H1      19.378010   20.077101   21.291237 H          1 MOL1         0.0740
       6    H2      18.017599   19.966507   22.416178 H          1 MOL1         0.0740
       7    C3      19.936096   20.364731   23.385948 C.3        1 MOL1        -0.1882
       8    H3      20.888490   20.844235   23.120851 H          1 MOL1         0.0742
       9    H4      19.539642   20.923232   24.245205 H          1 MOL1         0.0742
      10    C4      20.196125   18.902686   23.828079 C.3        1 MOL1        -0.1880
      11    H5      19.264307   18.446061   24.188860 H          1 MOL1         0.0742
      12    H6      20.868180   18.934665   24.696565 H          1 MOL1         0.0742
      13    C5      20.849595   18.007102   22.745205 C.3        1 MOL1        -0.1880
      14    H7      21.451169   18.620601   22.060595 H          1 MOL1         0.0742
      15    H8      21.552298   17.321487   23.238291 H          1 MOL1         0.0742
      16    C6      19.827988   17.159363   21.952478 C.3        1 MOL1        -0.1856
      17    H9      19.086165   17.803682   21.465737 H          1 MOL1         0.0742
      18    H10     19.274285   16.509682   22.644232 H          1 MOL1         0.0742
      19    C7      20.522149   16.290538   20.884481 C.3        1 MOL1        -0.2871
      20    H11     21.058353   16.915560   20.158401 H          1 MOL1         0.0754
      21    H12     19.785223   15.689907   20.335649 H          1 MOL1         0.0754
      22    H13     21.244126   15.603505   21.344989 H          1 MOL1         0.0754
@<TRIPOS>BOND
    1     1     2    1
    2     1     3    2
    3     1     4    1
    4     4     5    1
    5     4     6    1
    6     4     7    1
    7     7     8    1
    8     7     9    1
    9     7    10    1
   10    10    11    1
   11    10    12    1
   12    10    13    1
   13    13    14    1
   14    13    15    1
   15    13    16    1
   16    16    17    1
   17    16    18    1
   18    16    19    1
   19    19    20    1
   20    19    21    1
   21    19    22    1
@<TRIPOS>SUBSTRUCTURE
       1 MOL1            1 RESIDUE      1      MOL     
@<SCITEGIC>MOL_PROPERTY
VConf Rank
SciTegic.value.IntegerValue
393

@<SCITEGIC>MOL_PROPERTY
Conf_Id
SciTegic.value.IntegerValue
6

@<SCITEGIC>MOL_PROPERTY
Delta U+W
SciTegic.value.DoubleValue
2.118

@<SCITEGIC>MOL_PROPERTY
U+W
SciTegic.value.DoubleValue
-51.042

@<SCITEGIC>MOL_PROPERTY
Grad RMS
SciTegic.value.DoubleValue
0.000000

@<SCITEGIC>MOL_PROPERTY
U
SciTegic.value.DoubleValue
10.045

@<SCITEGIC>MOL_PROPERTY
W
SciTegic.value.DoubleValue
-61.086

@<SCITEGIC>MOL_PROPERTY
W(PB)
SciTegic.value.DoubleValue
-63.356

@<SCITEGIC>MOL_PROPERTY
W(SA)
SciTegic.value.DoubleValue
2.270

@<SCITEGIC>MOL_PROPERTY
Valence
SciTegic.value.DoubleValue
10.100

@<SCITEGIC>MOL_PROPERTY
Coulomb
SciTegic.value.DoubleValue
-0.883

@<SCITEGIC>MOL_PROPERTY
VdW
SciTegic.value.DoubleValue
0.828

@<SCITEGIC>MOL_PROPERTY
VdW6
SciTegic.value.DoubleValue
-8.177

@<SCITEGIC>MOL_PROPERTY
VdW12
SciTegic.value.DoubleValue
9.004

@<SCITEGIC>MOL_PROPERTY
Bond
SciTegic.value.DoubleValue
0.182

@<SCITEGIC>MOL_PROPERTY
Angle
SciTegic.value.DoubleValue
2.988

@<SCITEGIC>MOL_PROPERTY
Pdih
SciTegic.value.DoubleValue
6.930

@<SCITEGIC>MOL_PROPERTY
Idih
SciTegic.value.DoubleValue
0.001

@<SCITEGIC>MOL_PROPERTY
Tether
SciTegic.value.DoubleValue
0.000

@<TRIPOS>MOLECULE
guest-s21_confgen4.mol2 : confsearch ligand conformer 394
          22          21           1
SMALL
USER_CHARGES
 
@<TRIPOS>ATOM
       1    C1      17.779388   17.057380   23.036243 C.2        1 MOL1         0.6145
       2    O1      18.285258   16.002430   22.706590 O.co2      1 MOL1        -0.6735
       3    O2      16.885356   17.595566   22.413251 O.co2      1 MOL1        -0.6735
       4    C2      18.240975   17.707030   24.339450 C.3        1 MOL1        -0.1985
       5    H1      17.982253   17.006155   25.141554 H          1 MOL1         0.0740
       6    H2      17.650987   18.614965   24.513836 H          1 MOL1         0.0740
       7    C3      19.760003   18.028357   24.419345 C.3        1 MOL1        -0.1882
       8    H3      20.028971   18.132737   25.479148 H          1 MOL1         0.0742
       9    H4      20.343402   17.176902   24.042195 H          1 MOL1         0.0742
      10    C4      20.187964   19.328307   23.694161 C.3        1 MOL1        -0.1880
      11    H5      21.237382   19.531565   23.947900 H          1 MOL1         0.0742
      12    H6      19.606977   20.176266   24.081781 H          1 MOL1         0.0742
      13    C5      20.052535   19.265746   22.155898 C.3        1 MOL1        -0.1880
      14    H7      20.547621   18.360557   21.778314 H          1 MOL1         0.0742
      15    H8      18.993705   19.192976   21.877244 H          1 MOL1         0.0742
      16    C6      20.663810   20.510404   21.478318 C.3        1 MOL1        -0.1856
      17    H9      21.727570   20.591682   21.741306 H          1 MOL1         0.0742
      18    H10     20.170819   21.416769   21.856311 H          1 MOL1         0.0742
      19    C7      20.519415   20.450273   19.944385 C.3        1 MOL1        -0.2871
      20    H11     21.030743   19.568571   19.536323 H          1 MOL1         0.0754
      21    H12     20.957886   21.342522   19.478917 H          1 MOL1         0.0754
      22    H13     19.462464   20.399369   19.651529 H          1 MOL1         0.0754
@<TRIPOS>BOND
    1     1     2    1
    2     1     3    2
    3     1     4    1
    4     4     5    1
    5     4     6    1
    6     4     7    1
    7     7     8    1
    8     7     9    1
    9     7    10    1
   10    10    11    1
   11    10    12    1
   12    10    13    1
   13    13    14    1
   14    13    15    1
   15    13    16    1
   16    16    17    1
   17    16    18    1
   18    16    19    1
   19    19    20    1
   20    19    21    1
   21    19    22    1
@<TRIPOS>SUBSTRUCTURE
       1 MOL1            1 RESIDUE      1      MOL     
@<SCITEGIC>MOL_PROPERTY
VConf Rank
SciTegic.value.IntegerValue
394

@<SCITEGIC>MOL_PROPERTY
Conf_Id
SciTegic.value.IntegerValue
8

@<SCITEGIC>MOL_PROPERTY
Delta U+W
SciTegic.value.DoubleValue
1.886

@<SCITEGIC>MOL_PROPERTY
U+W
SciTegic.value.DoubleValue
-51.274

@<SCITEGIC>MOL_PROPERTY
Grad RMS
SciTegic.value.DoubleValue
0.000000

@<SCITEGIC>MOL_PROPERTY
U
SciTegic.value.DoubleValue
11.237

@<SCITEGIC>MOL_PROPERTY
W
SciTegic.value.DoubleValue
-62.510

@<SCITEGIC>MOL_PROPERTY
W(PB)
SciTegic.value.DoubleValue
-64.777

@<SCITEGIC>MOL_PROPERTY
W(SA)
SciTegic.value.DoubleValue
2.267

@<SCITEGIC>MOL_PROPERTY
Valence
SciTegic.value.DoubleValue
9.029

@<SCITEGIC>MOL_PROPERTY
Coulomb
SciTegic.value.DoubleValue
1.667

@<SCITEGIC>MOL_PROPERTY
VdW
SciTegic.value.DoubleValue
0.540

@<SCITEGIC>MOL_PROPERTY
VdW6
SciTegic.value.DoubleValue
-8.825

@<SCITEGIC>MOL_PROPERTY
VdW12
SciTegic.value.DoubleValue
9.365

@<SCITEGIC>MOL_PROPERTY
Bond
SciTegic.value.DoubleValue
0.186

@<SCITEGIC>MOL_PROPERTY
Angle
SciTegic.value.DoubleValue
3.195

@<SCITEGIC>MOL_PROPERTY
Pdih
SciTegic.value.DoubleValue
5.642

@<SCITEGIC>MOL_PROPERTY
Idih
SciTegic.value.DoubleValue
0.007

@<SCITEGIC>MOL_PROPERTY
Tether
SciTegic.value.DoubleValue
0.000

@<TRIPOS>MOLECULE
guest-s21_confgen4.mol2 : confsearch ligand conformer 395
          22          21           1
SMALL
USER_CHARGES
 
@<TRIPOS>ATOM
       1    C1      17.086957   19.742169   23.928931 C.2        1 MOL1         0.6145
       2    O1      16.658340   20.221837   22.897927 O.co2      1 MOL1        -0.6735
       3    O2      17.034842   20.305373   25.004753 O.co2      1 MOL1        -0.6735
       4    C2      17.697195   18.344250   23.877983 C.3        1 MOL1        -0.1985
       5    H1      17.419538   17.873943   22.928021 H          1 MOL1         0.0740
       6    H2      17.219509   17.751857   24.667040 H          1 MOL1         0.0740
       7    C3      19.237571   18.315431   24.076877 C.3        1 MOL1        -0.1882
       8    H3      19.470281   18.721259   25.071099 H          1 MOL1         0.0742
       9    H4      19.580786   17.272121   24.083078 H          1 MOL1         0.0742
      10    C4      20.039777   19.109513   23.016391 C.3        1 MOL1        -0.1880
      11    H5      21.096407   19.096566   23.311956 H          1 MOL1         0.0742
      12    H6      19.727949   20.162872   23.027447 H          1 MOL1         0.0742
      13    C5      19.897721   18.541069   21.583166 C.3        1 MOL1        -0.1880
      14    H7      20.189915   17.482302   21.571906 H          1 MOL1         0.0742
      15    H8      18.843022   18.578968   21.281327 H          1 MOL1         0.0742
      16    C6      20.722468   19.317376   20.530009 C.3        1 MOL1        -0.1856
      17    H9      20.442986   20.379857   20.550051 H          1 MOL1         0.0742
      18    H10     20.455235   18.945589   19.531241 H          1 MOL1         0.0742
      19    C7      22.248709   19.176037   20.718224 C.3        1 MOL1        -0.2871
      20    H11     22.583687   19.644547   21.651839 H          1 MOL1         0.0754
      21    H12     22.783382   19.663387   19.892686 H          1 MOL1         0.0754
      22    H13     22.546224   18.119505   20.736186 H          1 MOL1         0.0754
@<TRIPOS>BOND
    1     1     2    1
    2     1     3    2
    3     1     4    1
    4     4     5    1
    5     4     6    1
    6     4     7    1
    7     7     8    1
    8     7     9    1
    9     7    10    1
   10    10    11    1
   11    10    12    1
   12    10    13    1
   13    13    14    1
   14    13    15    1
   15    13    16    1
   16    16    17    1
   17    16    18    1
   18    16    19    1
   19    19    20    1
   20    19    21    1
   21    19    22    1
@<TRIPOS>SUBSTRUCTURE
       1 MOL1            1 RESIDUE      1      MOL     
@<SCITEGIC>MOL_PROPERTY
VConf Rank
SciTegic.value.IntegerValue
395

@<SCITEGIC>MOL_PROPERTY
Conf_Id
SciTegic.value.IntegerValue
93

@<SCITEGIC>MOL_PROPERTY
Delta U+W
SciTegic.value.DoubleValue
1.836

@<SCITEGIC>MOL_PROPERTY
U+W
SciTegic.value.DoubleValue
-51.323

@<SCITEGIC>MOL_PROPERTY
Grad RMS
SciTegic.value.DoubleValue
0.000000

@<SCITEGIC>MOL_PROPERTY
U
SciTegic.value.DoubleValue
10.427

@<SCITEGIC>MOL_PROPERTY
W
SciTegic.value.DoubleValue
-61.751

@<SCITEGIC>MOL_PROPERTY
W(PB)
SciTegic.value.DoubleValue
-63.980

@<SCITEGIC>MOL_PROPERTY
W(SA)
SciTegic.value.DoubleValue
2.230

@<SCITEGIC>MOL_PROPERTY
Valence
SciTegic.value.DoubleValue
8.446

@<SCITEGIC>MOL_PROPERTY
Coulomb
SciTegic.value.DoubleValue
1.306

@<SCITEGIC>MOL_PROPERTY
VdW
SciTegic.value.DoubleValue
0.676

@<SCITEGIC>MOL_PROPERTY
VdW6
SciTegic.value.DoubleValue
-8.928

@<SCITEGIC>MOL_PROPERTY
VdW12
SciTegic.value.DoubleValue
9.604

@<SCITEGIC>MOL_PROPERTY
Bond
SciTegic.value.DoubleValue
0.209

@<SCITEGIC>MOL_PROPERTY
Angle
SciTegic.value.DoubleValue
3.066

@<SCITEGIC>MOL_PROPERTY
Pdih
SciTegic.value.DoubleValue
5.170

@<SCITEGIC>MOL_PROPERTY
Idih
SciTegic.value.DoubleValue
0.001

@<SCITEGIC>MOL_PROPERTY
Tether
SciTegic.value.DoubleValue
0.000

@<TRIPOS>MOLECULE
guest-s21_confgen4.mol2 : confsearch ligand conformer 396
          22          21           1
SMALL
USER_CHARGES
 
@<TRIPOS>ATOM
       1    C1      17.264974   19.044820   20.562792 C.2        1 MOL1         0.6145
       2    O1      16.178346   19.534383   20.801273 O.co2      1 MOL1        -0.6735
       3    O2      17.443127   17.854787   20.392940 O.co2      1 MOL1        -0.6735
       4    C2      18.464168   19.980882   20.440795 C.3        1 MOL1        -0.1985
       5    H1      18.179389   20.786553   19.754124 H          1 MOL1         0.0740
       6    H2      19.285075   19.439275   19.957593 H          1 MOL1         0.0740
       7    C3      18.929446   20.596931   21.788812 C.3        1 MOL1        -0.1882
       8    H3      19.754507   21.296791   21.599600 H          1 MOL1         0.0742
       9    H4      18.106891   21.196470   22.202676 H          1 MOL1         0.0742
      10    C4      19.372962   19.561757   22.852033 C.3        1 MOL1        -0.1880
      11    H5      18.541719   18.878636   23.074079 H          1 MOL1         0.0742
      12    H6      19.585865   20.102688   23.782657 H          1 MOL1         0.0742
      13    C5      20.619382   18.743936   22.433643 C.3        1 MOL1        -0.1880
      14    H7      20.394391   18.184459   21.516419 H          1 MOL1         0.0742
      15    H8      21.447073   19.424281   22.191665 H          1 MOL1         0.0742
      16    C6      21.078573   17.731111   23.508502 C.3        1 MOL1        -0.1856
      17    H9      21.868070   17.098408   23.080066 H          1 MOL1         0.0742
      18    H10     20.247459   17.059165   23.763684 H          1 MOL1         0.0742
      19    C7      21.621521   18.399145   24.790589 C.3        1 MOL1        -0.2871
      20    H11     20.833932   18.946293   25.323209 H          1 MOL1         0.0754
      21    H12     22.431050   19.102101   24.554761 H          1 MOL1         0.0754
      22    H13     22.021261   17.641939   25.477426 H          1 MOL1         0.0754
@<TRIPOS>BOND
    1     1     2    1
    2     1     3    2
    3     1     4    1
    4     4     5    1
    5     4     6    1
    6     4     7    1
    7     7     8    1
    8     7     9    1
    9     7    10    1
   10    10    11    1
   11    10    12    1
   12    10    13    1
   13    13    14    1
   14    13    15    1
   15    13    16    1
   16    16    17    1
   17    16    18    1
   18    16    19    1
   19    19    20    1
   20    19    21    1
   21    19    22    1
@<TRIPOS>SUBSTRUCTURE
       1 MOL1            1 RESIDUE      1      MOL     
@<SCITEGIC>MOL_PROPERTY
VConf Rank
SciTegic.value.IntegerValue
396

@<SCITEGIC>MOL_PROPERTY
Conf_Id
SciTegic.value.IntegerValue
70

@<SCITEGIC>MOL_PROPERTY
Delta U+W
SciTegic.value.DoubleValue
1.803

@<SCITEGIC>MOL_PROPERTY
U+W
SciTegic.value.DoubleValue
-51.356

@<SCITEGIC>MOL_PROPERTY
Grad RMS
SciTegic.value.DoubleValue
0.000000

@<SCITEGIC>MOL_PROPERTY
U
SciTegic.value.DoubleValue
10.428

@<SCITEGIC>MOL_PROPERTY
W
SciTegic.value.DoubleValue
-61.784

@<SCITEGIC>MOL_PROPERTY
W(PB)
SciTegic.value.DoubleValue
-64.014

@<SCITEGIC>MOL_PROPERTY
W(SA)
SciTegic.value.DoubleValue
2.230

@<SCITEGIC>MOL_PROPERTY
Valence
SciTegic.value.DoubleValue
8.445

@<SCITEGIC>MOL_PROPERTY
Coulomb
SciTegic.value.DoubleValue
1.306

@<SCITEGIC>MOL_PROPERTY
VdW
SciTegic.value.DoubleValue
0.676

@<SCITEGIC>MOL_PROPERTY
VdW6
SciTegic.value.DoubleValue
-8.929

@<SCITEGIC>MOL_PROPERTY
VdW12
SciTegic.value.DoubleValue
9.605

@<SCITEGIC>MOL_PROPERTY
Bond
SciTegic.value.DoubleValue
0.209

@<SCITEGIC>MOL_PROPERTY
Angle
SciTegic.value.DoubleValue
3.066

@<SCITEGIC>MOL_PROPERTY
Pdih
SciTegic.value.DoubleValue
5.170

@<SCITEGIC>MOL_PROPERTY
Idih
SciTegic.value.DoubleValue
0.001

@<SCITEGIC>MOL_PROPERTY
Tether
SciTegic.value.DoubleValue
0.000

@<TRIPOS>MOLECULE
guest-s21_confgen4.mol2 : confsearch ligand conformer 397
          22          21           1
SMALL
USER_CHARGES
 
@<TRIPOS>ATOM
       1    C1      18.975886   16.120126   23.852409 C.2        1 MOL1         0.6145
       2    O1      19.511438   16.205916   24.939946 O.co2      1 MOL1        -0.6735
       3    O2      19.200685   15.225756   23.060925 O.co2      1 MOL1        -0.6735
       4    C2      17.949662   17.183176   23.470459 C.3        1 MOL1        -0.1985
       5    H1      17.297366   17.336742   24.338195 H          1 MOL1         0.0740
       6    H2      17.318726   16.787478   22.665362 H          1 MOL1         0.0740
       7    C3      18.574416   18.537609   23.045990 C.3        1 MOL1        -0.1882
       8    H3      17.771651   19.276008   22.917146 H          1 MOL1         0.0742
       9    H4      19.215624   18.903529   23.858755 H          1 MOL1         0.0742
      10    C4      19.384910   18.429646   21.732214 C.3        1 MOL1        -0.1880
      11    H5      18.749554   17.980170   20.956885 H          1 MOL1         0.0742
      12    H6      20.232938   17.745097   21.872022 H          1 MOL1         0.0742
      13    C5      19.902701   19.792330   21.214033 C.3        1 MOL1        -0.1880
      14    H7      20.354818   19.639213   20.224571 H          1 MOL1         0.0742
      15    H8      19.055743   20.476147   21.065975 H          1 MOL1         0.0742
      16    C6      20.946065   20.449010   22.145877 C.3        1 MOL1        -0.1856
      17    H9      21.767722   19.744856   22.336441 H          1 MOL1         0.0742
      18    H10     20.491783   20.681979   23.117840 H          1 MOL1         0.0742
      19    C7      21.513980   21.745526   21.534116 C.3        1 MOL1        -0.2871
      20    H11     22.011249   21.543558   20.576366 H          1 MOL1         0.0754
      21    H12     22.250535   22.201098   22.208653 H          1 MOL1         0.0754
      22    H13     20.715998   22.478826   21.358425 H          1 MOL1         0.0754
@<TRIPOS>BOND
    1     1     2    1
    2     1     3    2
    3     1     4    1
    4     4     5    1
    5     4     6    1
    6     4     7    1
    7     7     8    1
    8     7     9    1
    9     7    10    1
   10    10    11    1
   11    10    12    1
   12    10    13    1
   13    13    14    1
   14    13    15    1
   15    13    16    1
   16    16    17    1
   17    16    18    1
   18    16    19    1
   19    19    20    1
   20    19    21    1
   21    19    22    1
@<TRIPOS>SUBSTRUCTURE
       1 MOL1            1 RESIDUE      1      MOL     
@<SCITEGIC>MOL_PROPERTY
VConf Rank
SciTegic.value.IntegerValue
397

@<SCITEGIC>MOL_PROPERTY
Conf_Id
SciTegic.value.IntegerValue
85

@<SCITEGIC>MOL_PROPERTY
Delta U+W
SciTegic.value.DoubleValue
0.707

@<SCITEGIC>MOL_PROPERTY
U+W
SciTegic.value.DoubleValue
-52.452

@<SCITEGIC>MOL_PROPERTY
Grad RMS
SciTegic.value.DoubleValue
0.000000

@<SCITEGIC>MOL_PROPERTY
U
SciTegic.value.DoubleValue
8.925

@<SCITEGIC>MOL_PROPERTY
W
SciTegic.value.DoubleValue
-61.378

@<SCITEGIC>MOL_PROPERTY
W(PB)
SciTegic.value.DoubleValue
-63.661

@<SCITEGIC>MOL_PROPERTY
W(SA)
SciTegic.value.DoubleValue
2.283

@<SCITEGIC>MOL_PROPERTY
Valence
SciTegic.value.DoubleValue
7.881

@<SCITEGIC>MOL_PROPERTY
Coulomb
SciTegic.value.DoubleValue
0.349

@<SCITEGIC>MOL_PROPERTY
VdW
SciTegic.value.DoubleValue
0.695

@<SCITEGIC>MOL_PROPERTY
VdW6
SciTegic.value.DoubleValue
-8.049

@<SCITEGIC>MOL_PROPERTY
VdW12
SciTegic.value.DoubleValue
8.743

@<SCITEGIC>MOL_PROPERTY
Bond
SciTegic.value.DoubleValue
0.156

@<SCITEGIC>MOL_PROPERTY
Angle
SciTegic.value.DoubleValue
2.660

@<SCITEGIC>MOL_PROPERTY
Pdih
SciTegic.value.DoubleValue
5.064

@<SCITEGIC>MOL_PROPERTY
Idih
SciTegic.value.DoubleValue
0.001

@<SCITEGIC>MOL_PROPERTY
Tether
SciTegic.value.DoubleValue
0.000

@<TRIPOS>MOLECULE
guest-s21_confgen4.mol2 : confsearch ligand conformer 398
          22          21           1
SMALL
USER_CHARGES
 
@<TRIPOS>ATOM
       1    C1      18.794796   16.067665   23.827606 C.2        1 MOL1         0.6145
       2    O1      19.560960   15.139124   23.661039 O.co2      1 MOL1        -0.6735
       3    O2      18.309870   16.353931   24.904580 O.co2      1 MOL1        -0.6735
       4    C2      18.400732   16.906989   22.615318 C.3        1 MOL1        -0.1985
       5    H1      17.312266   17.034565   22.646268 H          1 MOL1         0.0740
       6    H2      18.627903   16.337995   21.705651 H          1 MOL1         0.0740
       7    C3      19.082757   18.298938   22.560483 C.3        1 MOL1        -0.1882
       8    H3      18.620690   18.878340   21.751352 H          1 MOL1         0.0742
       9    H4      18.886181   18.839008   23.496945 H          1 MOL1         0.0742
      10    C4      20.606855   18.205698   22.316526 C.3        1 MOL1        -0.1880
      11    H5      20.791994   17.741330   21.338371 H          1 MOL1         0.0742
      12    H6      21.051388   17.534047   23.063598 H          1 MOL1         0.0742
      13    C5      21.347302   19.564679   22.390220 C.3        1 MOL1        -0.1880
      14    H7      21.245902   19.994533   23.396138 H          1 MOL1         0.0742
      15    H8      22.419290   19.363533   22.258886 H          1 MOL1         0.0742
      16    C6      20.916533   20.597657   21.319101 C.3        1 MOL1        -0.1856
      17    H9      20.544446   20.084013   20.421921 H          1 MOL1         0.0742
      18    H10     21.802815   21.163890   21.001009 H          1 MOL1         0.0742
      19    C7      19.865710   21.606494   21.833931 C.3        1 MOL1        -0.2871
      20    H11     18.944298   21.108170   22.155763 H          1 MOL1         0.0754
      21    H12     19.601659   22.322081   21.044608 H          1 MOL1         0.0754
      22    H13     20.257373   22.176666   22.686334 H          1 MOL1         0.0754
@<TRIPOS>BOND
    1     1     2    1
    2     1     3    2
    3     1     4    1
    4     4     5    1
    5     4     6    1
    6     4     7    1
    7     7     8    1
    8     7     9    1
    9     7    10    1
   10    10    11    1
   11    10    12    1
   12    10    13    1
   13    13    14    1
   14    13    15    1
   15    13    16    1
   16    16    17    1
   17    16    18    1
   18    16    19    1
   19    19    20    1
   20    19    21    1
   21    19    22    1
@<TRIPOS>SUBSTRUCTURE
       1 MOL1            1 RESIDUE      1      MOL     
@<SCITEGIC>MOL_PROPERTY
VConf Rank
SciTegic.value.IntegerValue
398

@<SCITEGIC>MOL_PROPERTY
Conf_Id
SciTegic.value.IntegerValue
82

@<SCITEGIC>MOL_PROPERTY
Delta U+W
SciTegic.value.DoubleValue
3.438

@<SCITEGIC>MOL_PROPERTY
U+W
SciTegic.value.DoubleValue
-49.721

@<SCITEGIC>MOL_PROPERTY
Grad RMS
SciTegic.value.DoubleValue
0.000000

@<SCITEGIC>MOL_PROPERTY
U
SciTegic.value.DoubleValue
11.773

@<SCITEGIC>MOL_PROPERTY
W
SciTegic.value.DoubleValue
-61.495

@<SCITEGIC>MOL_PROPERTY
W(PB)
SciTegic.value.DoubleValue
-63.749

@<SCITEGIC>MOL_PROPERTY
W(SA)
SciTegic.value.DoubleValue
2.254

@<SCITEGIC>MOL_PROPERTY
Valence
SciTegic.value.DoubleValue
10.419

@<SCITEGIC>MOL_PROPERTY
Coulomb
SciTegic.value.DoubleValue
0.565

@<SCITEGIC>MOL_PROPERTY
VdW
SciTegic.value.DoubleValue
0.789

@<SCITEGIC>MOL_PROPERTY
VdW6
SciTegic.value.DoubleValue
-8.847

@<SCITEGIC>MOL_PROPERTY
VdW12
SciTegic.value.DoubleValue
9.636

@<SCITEGIC>MOL_PROPERTY
Bond
SciTegic.value.DoubleValue
0.200

@<SCITEGIC>MOL_PROPERTY
Angle
SciTegic.value.DoubleValue
3.187

@<SCITEGIC>MOL_PROPERTY
Pdih
SciTegic.value.DoubleValue
7.032

@<SCITEGIC>MOL_PROPERTY
Idih
SciTegic.value.DoubleValue
0.001

@<SCITEGIC>MOL_PROPERTY
Tether
SciTegic.value.DoubleValue
0.000

@<TRIPOS>MOLECULE
guest-s21_confgen4.mol2 : confsearch ligand conformer 399
          22          21           1
SMALL
USER_CHARGES
 
@<TRIPOS>ATOM
       1    C1      19.106737   15.727607   22.995764 C.2        1 MOL1         0.6145
       2    O1      17.897774   15.625647   22.925164 O.co2      1 MOL1        -0.6735
       3    O2      19.878559   14.941092   22.483294 O.co2      1 MOL1        -0.6735
       4    C2      19.684976   16.894710   23.791320 C.3        1 MOL1        -0.1985
       5    H1      20.725728   16.662960   24.048194 H          1 MOL1         0.0740
       6    H2      19.130564   16.952998   24.735366 H          1 MOL1         0.0740
       7    C3      19.605312   18.260268   23.060160 C.3        1 MOL1        -0.1882
       8    H3      18.564827   18.457478   22.767282 H          1 MOL1         0.0742
       9    H4      19.895906   19.047838   23.766697 H          1 MOL1         0.0742
      10    C4      20.523183   18.324352   21.817386 C.3        1 MOL1        -0.1880
      11    H5      20.305329   17.468907   21.163478 H          1 MOL1         0.0742
      12    H6      21.569972   18.211625   22.130797 H          1 MOL1         0.0742
      13    C5      20.372316   19.619889   20.981115 C.3        1 MOL1        -0.1880
      14    H7      21.026268   19.523832   20.103626 H          1 MOL1         0.0742
      15    H8      19.350594   19.695015   20.584420 H          1 MOL1         0.0742
      16    C6      20.755711   20.922426   21.726972 C.3        1 MOL1        -0.1856
      17    H9      21.244578   21.603012   21.016261 H          1 MOL1         0.0742
      18    H10     21.499672   20.710186   22.507156 H          1 MOL1         0.0742
      19    C7      19.539335   21.658238   22.331982 C.3        1 MOL1        -0.2871
      20    H11     18.824158   21.939361   21.548032 H          1 MOL1         0.0754
      21    H12     19.860009   22.577537   22.838813 H          1 MOL1         0.0754
      22    H13     19.010461   21.038904   23.065208 H          1 MOL1         0.0754
@<TRIPOS>BOND
    1     1     2    1
    2     1     3    2
    3     1     4    1
    4     4     5    1
    5     4     6    1
    6     4     7    1
    7     7     8    1
    8     7     9    1
    9     7    10    1
   10    10    11    1
   11    10    12    1
   12    10    13    1
   13    13    14    1
   14    13    15    1
   15    13    16    1
   16    16    17    1
   17    16    18    1
   18    16    19    1
   19    19    20    1
   20    19    21    1
   21    19    22    1
@<TRIPOS>SUBSTRUCTURE
       1 MOL1            1 RESIDUE      1      MOL     
@<SCITEGIC>MOL_PROPERTY
VConf Rank
SciTegic.value.IntegerValue
399

@<SCITEGIC>MOL_PROPERTY
Conf_Id
SciTegic.value.IntegerValue
94

@<SCITEGIC>MOL_PROPERTY
Delta U+W
SciTegic.value.DoubleValue
3.471

@<SCITEGIC>MOL_PROPERTY
U+W
SciTegic.value.DoubleValue
-49.688

@<SCITEGIC>MOL_PROPERTY
Grad RMS
SciTegic.value.DoubleValue
0.000000

@<SCITEGIC>MOL_PROPERTY
U
SciTegic.value.DoubleValue
11.773

@<SCITEGIC>MOL_PROPERTY
W
SciTegic.value.DoubleValue
-61.461

@<SCITEGIC>MOL_PROPERTY
W(PB)
SciTegic.value.DoubleValue
-63.710

@<SCITEGIC>MOL_PROPERTY
W(SA)
SciTegic.value.DoubleValue
2.248

@<SCITEGIC>MOL_PROPERTY
Valence
SciTegic.value.DoubleValue
10.419

@<SCITEGIC>MOL_PROPERTY
Coulomb
SciTegic.value.DoubleValue
0.566

@<SCITEGIC>MOL_PROPERTY
VdW
SciTegic.value.DoubleValue
0.789

@<SCITEGIC>MOL_PROPERTY
VdW6
SciTegic.value.DoubleValue
-8.847

@<SCITEGIC>MOL_PROPERTY
VdW12
SciTegic.value.DoubleValue
9.636

@<SCITEGIC>MOL_PROPERTY
Bond
SciTegic.value.DoubleValue
0.200

@<SCITEGIC>MOL_PROPERTY
Angle
SciTegic.value.DoubleValue
3.187

@<SCITEGIC>MOL_PROPERTY
Pdih
SciTegic.value.DoubleValue
7.032

@<SCITEGIC>MOL_PROPERTY
Idih
SciTegic.value.DoubleValue
0.001

@<SCITEGIC>MOL_PROPERTY
Tether
SciTegic.value.DoubleValue
0.000

@<TRIPOS>MOLECULE
guest-s21_confgen4.mol2 : confsearch ligand conformer 400
          22          21           1
SMALL
USER_CHARGES
 
@<TRIPOS>ATOM
       1    C1      22.672931   18.411669   23.929317 C.2        1 MOL1         0.6145
       2    O1      23.816403   18.769969   23.727345 O.co2      1 MOL1        -0.6735
       3    O2      22.381701   17.349855   24.443427 O.co2      1 MOL1        -0.6735
       4    C2      21.541580   19.337081   23.496199 C.3        1 MOL1        -0.1985
       5    H1      21.887471   20.372025   23.603364 H          1 MOL1         0.0740
       6    H2      20.709740   19.197343   24.195877 H          1 MOL1         0.0740
       7    C3      21.077148   19.076364   22.039908 C.3        1 MOL1        -0.1882
       8    H3      21.948630   19.143010   21.374193 H          1 MOL1         0.0742
       9    H4      20.705500   18.046868   21.951361 H          1 MOL1         0.0742
      10    C4      20.000857   20.075438   21.546081 C.3        1 MOL1        -0.1880
      11    H5      19.767392   19.855537   20.496028 H          1 MOL1         0.0742
      12    H6      20.428388   21.087243   21.549627 H          1 MOL1         0.0742
      13    C5      18.686441   20.090928   22.370241 C.3        1 MOL1        -0.1880
      14    H7      18.894672   20.468996   23.379674 H          1 MOL1         0.0742
      15    H8      17.998427   20.817868   21.917760 H          1 MOL1         0.0742
      16    C6      17.964330   18.725880   22.484818 C.3        1 MOL1        -0.1856
      17    H9      17.068728   18.854609   23.107903 H          1 MOL1         0.0742
      18    H10     18.601209   18.004327   23.013732 H          1 MOL1         0.0742
      19    C7      17.540049   18.143875   21.119146 C.3        1 MOL1        -0.2871
      20    H11     16.915067   18.856566   20.565592 H          1 MOL1         0.0754
      21    H12     16.961074   17.221714   21.257535 H          1 MOL1         0.0754
      22    H13     18.413426   17.899201   20.501649 H          1 MOL1         0.0754
@<TRIPOS>BOND
    1     1     2    1
    2     1     3    2
    3     1     4    1
    4     4     5    1
    5     4     6    1
    6     4     7    1
    7     7     8    1
    8     7     9    1
    9     7    10    1
   10    10    11    1
   11    10    12    1
   12    10    13    1
   13    13    14    1
   14    13    15    1
   15    13    16    1
   16    16    17    1
   17    16    18    1
   18    16    19    1
   19    19    20    1
   20    19    21    1
   21    19    22    1
@<TRIPOS>SUBSTRUCTURE
       1 MOL1            1 RESIDUE      1      MOL     
@<SCITEGIC>MOL_PROPERTY
VConf Rank
SciTegic.value.IntegerValue
400

@<SCITEGIC>MOL_PROPERTY
Conf_Id
SciTegic.value.IntegerValue
56

@<SCITEGIC>MOL_PROPERTY
Delta U+W
SciTegic.value.DoubleValue
0.853

@<SCITEGIC>MOL_PROPERTY
U+W
SciTegic.value.DoubleValue
-52.307

@<SCITEGIC>MOL_PROPERTY
Grad RMS
SciTegic.value.DoubleValue
0.000000

@<SCITEGIC>MOL_PROPERTY
U
SciTegic.value.DoubleValue
8.874

@<SCITEGIC>MOL_PROPERTY
W
SciTegic.value.DoubleValue
-61.181

@<SCITEGIC>MOL_PROPERTY
W(PB)
SciTegic.value.DoubleValue
-63.413

@<SCITEGIC>MOL_PROPERTY
W(SA)
SciTegic.value.DoubleValue
2.232

@<SCITEGIC>MOL_PROPERTY
Valence
SciTegic.value.DoubleValue
8.479

@<SCITEGIC>MOL_PROPERTY
Coulomb
SciTegic.value.DoubleValue
-0.357

@<SCITEGIC>MOL_PROPERTY
VdW
SciTegic.value.DoubleValue
0.753

@<SCITEGIC>MOL_PROPERTY
VdW6
SciTegic.value.DoubleValue
-9.081

@<SCITEGIC>MOL_PROPERTY
VdW12
SciTegic.value.DoubleValue
9.833

@<SCITEGIC>MOL_PROPERTY
Bond
SciTegic.value.DoubleValue
0.221

@<SCITEGIC>MOL_PROPERTY
Angle
SciTegic.value.DoubleValue
3.208

@<SCITEGIC>MOL_PROPERTY
Pdih
SciTegic.value.DoubleValue
5.050

@<SCITEGIC>MOL_PROPERTY
Idih
SciTegic.value.DoubleValue
0.000

@<SCITEGIC>MOL_PROPERTY
Tether
SciTegic.value.DoubleValue
0.000

@<TRIPOS>MOLECULE
guest-s21_confgen4.mol2 : confsearch ligand conformer 401
          22          21           1
SMALL
USER_CHARGES
 
@<TRIPOS>ATOM
       1    C1      22.514450   19.961301   25.015987 C.2        1 MOL1         0.6145
       2    O1      21.988150   21.038000   25.221240 O.co2      1 MOL1        -0.6735
       3    O2      23.501140   19.580489   25.613771 O.co2      1 MOL1        -0.6735
       4    C2      21.930407   19.019712   23.961554 C.3        1 MOL1        -0.1985
       5    H1      21.696246   18.072969   24.462369 H          1 MOL1         0.0740
       6    H2      22.723908   18.810516   23.234532 H          1 MOL1         0.0740
       7    C3      20.670930   19.549035   23.225387 C.3        1 MOL1        -0.1882
       8    H3      19.882117   19.762488   23.960030 H          1 MOL1         0.0742
       9    H4      20.910747   20.500604   22.730923 H          1 MOL1         0.0742
      10    C4      20.148751   18.538192   22.181337 C.3        1 MOL1        -0.1880
      11    H5      19.909699   17.587756   22.677983 H          1 MOL1         0.0742
      12    H6      20.939070   18.326269   21.448116 H          1 MOL1         0.0742
      13    C5      18.896004   19.066726   21.450185 C.3        1 MOL1        -0.1880
      14    H7      18.105393   19.278856   22.183030 H          1 MOL1         0.0742
      15    H8      19.134590   20.017173   20.953340 H          1 MOL1         0.0742
      16    C6      18.373607   18.057052   20.406748 C.3        1 MOL1        -0.1856
      17    H9      18.131914   17.105577   20.900465 H          1 MOL1         0.0742
      18    H10     19.161212   17.843868   19.670740 H          1 MOL1         0.0742
      19    C7      17.122653   18.588620   19.678816 C.3        1 MOL1        -0.2871
      20    H11     16.307264   18.780839   20.388465 H          1 MOL1         0.0754
      21    H12     16.764867   17.858621   18.941128 H          1 MOL1         0.0754
      22    H13     17.344288   19.524613   19.149475 H          1 MOL1         0.0754
@<TRIPOS>BOND
    1     1     2    1
    2     1     3    2
    3     1     4    1
    4     4     5    1
    5     4     6    1
    6     4     7    1
    7     7     8    1
    8     7     9    1
    9     7    10    1
   10    10    11    1
   11    10    12    1
   12    10    13    1
   13    13    14    1
   14    13    15    1
   15    13    16    1
   16    16    17    1
   17    16    18    1
   18    16    19    1
   19    19    20    1
   20    19    21    1
   21    19    22    1
@<TRIPOS>SUBSTRUCTURE
       1 MOL1            1 RESIDUE      1      MOL     
@<SCITEGIC>MOL_PROPERTY
VConf Rank
SciTegic.value.IntegerValue
401

@<SCITEGIC>MOL_PROPERTY
Conf_Id
SciTegic.value.IntegerValue
0

@<SCITEGIC>MOL_PROPERTY
Delta U+W
SciTegic.value.DoubleValue
0.000

@<SCITEGIC>MOL_PROPERTY
U+W
SciTegic.value.DoubleValue
-53.159

@<SCITEGIC>MOL_PROPERTY
Grad RMS
SciTegic.value.DoubleValue
0.000000

@<SCITEGIC>MOL_PROPERTY
U
SciTegic.value.DoubleValue
6.763

@<SCITEGIC>MOL_PROPERTY
W
SciTegic.value.DoubleValue
-59.922

@<SCITEGIC>MOL_PROPERTY
W(PB)
SciTegic.value.DoubleValue
-62.256

@<SCITEGIC>MOL_PROPERTY
W(SA)
SciTegic.value.DoubleValue
2.334

@<SCITEGIC>MOL_PROPERTY
Valence
SciTegic.value.DoubleValue
7.600

@<SCITEGIC>MOL_PROPERTY
Coulomb
SciTegic.value.DoubleValue
-2.139

@<SCITEGIC>MOL_PROPERTY
VdW
SciTegic.value.DoubleValue
1.302

@<SCITEGIC>MOL_PROPERTY
VdW6
SciTegic.value.DoubleValue
-6.786

@<SCITEGIC>MOL_PROPERTY
VdW12
SciTegic.value.DoubleValue
8.088

@<SCITEGIC>MOL_PROPERTY
Bond
SciTegic.value.DoubleValue
0.134

@<SCITEGIC>MOL_PROPERTY
Angle
SciTegic.value.DoubleValue
2.720

@<SCITEGIC>MOL_PROPERTY
Pdih
SciTegic.value.DoubleValue
4.746

@<SCITEGIC>MOL_PROPERTY
Idih
SciTegic.value.DoubleValue
0.000

@<SCITEGIC>MOL_PROPERTY
Tether
SciTegic.value.DoubleValue
0.000

@<TRIPOS>MOLECULE
guest-s21_confgen4.mol2 : confsearch ligand conformer 402
          22          21           1
SMALL
USER_CHARGES
 
@<TRIPOS>ATOM
       1    C1      17.265292   21.267262   24.296912 C.2        1 MOL1         0.6145
       2    O1      16.507210   20.642069   25.011668 O.co2      1 MOL1        -0.6735
       3    O2      16.973755   22.319584   23.763943 O.co2      1 MOL1        -0.6735
       4    C2      18.651226   20.688023   24.036373 C.3        1 MOL1        -0.1985
       5    H1      18.965577   20.140137   24.932848 H          1 MOL1         0.0740
       6    H2      19.350178   21.522785   23.904841 H          1 MOL1         0.0740
       7    C3      18.691528   19.757166   22.799469 C.3        1 MOL1        -0.1882
       8    H3      17.977130   18.934285   22.941155 H          1 MOL1         0.0742
       9    H4      18.361721   20.316890   21.913179 H          1 MOL1         0.0742
      10    C4      20.104552   19.183978   22.557194 C.3        1 MOL1        -0.1880
      11    H5      20.431702   18.626144   23.445434 H          1 MOL1         0.0742
      12    H6      20.816406   20.009112   22.417234 H          1 MOL1         0.0742
      13    C5      20.141662   18.256518   21.323608 C.3        1 MOL1        -0.1880
      14    H7      19.429923   17.431246   21.463177 H          1 MOL1         0.0742
      15    H8      19.814564   18.813982   20.435145 H          1 MOL1         0.0742
      16    C6      21.553568   17.683245   21.080812 C.3        1 MOL1        -0.1856
      17    H9      21.883464   17.123135   21.966771 H          1 MOL1         0.0742
      18    H10     22.268116   18.505873   20.938751 H          1 MOL1         0.0742
      19    C7      21.586433   16.757638   19.848128 C.3        1 MOL1        -0.2871
      20    H11     21.290946   17.300942   18.940980 H          1 MOL1         0.0754
      21    H12     20.903248   15.907853   19.976702 H          1 MOL1         0.0754
      22    H13     22.597075   16.359114   19.690408 H          1 MOL1         0.0754
@<TRIPOS>BOND
    1     1     2    1
    2     1     3    2
    3     1     4    1
    4     4     5    1
    5     4     6    1
    6     4     7    1
    7     7     8    1
    8     7     9    1
    9     7    10    1
   10    10    11    1
   11    10    12    1
   12    10    13    1
   13    13    14    1
   14    13    15    1
   15    13    16    1
   16    16    17    1
   17    16    18    1
   18    16    19    1
   19    19    20    1
   20    19    21    1
   21    19    22    1
@<TRIPOS>SUBSTRUCTURE
       1 MOL1            1 RESIDUE      1      MOL     
@<SCITEGIC>MOL_PROPERTY
VConf Rank
SciTegic.value.IntegerValue
402

@<SCITEGIC>MOL_PROPERTY
Conf_Id
SciTegic.value.IntegerValue
10

@<SCITEGIC>MOL_PROPERTY
Delta U+W
SciTegic.value.DoubleValue
-1.291

@<SCITEGIC>MOL_PROPERTY
U+W
SciTegic.value.DoubleValue
-54.451

@<SCITEGIC>MOL_PROPERTY
Grad RMS
SciTegic.value.DoubleValue
0.000000

@<SCITEGIC>MOL_PROPERTY
U
SciTegic.value.DoubleValue
5.779

@<SCITEGIC>MOL_PROPERTY
W
SciTegic.value.DoubleValue
-60.230

@<SCITEGIC>MOL_PROPERTY
W(PB)
SciTegic.value.DoubleValue
-62.557

@<SCITEGIC>MOL_PROPERTY
W(SA)
SciTegic.value.DoubleValue
2.328

@<SCITEGIC>MOL_PROPERTY
Valence
SciTegic.value.DoubleValue
7.101

@<SCITEGIC>MOL_PROPERTY
Coulomb
SciTegic.value.DoubleValue
-2.079

@<SCITEGIC>MOL_PROPERTY
VdW
SciTegic.value.DoubleValue
0.757

@<SCITEGIC>MOL_PROPERTY
VdW6
SciTegic.value.DoubleValue
-6.496

@<SCITEGIC>MOL_PROPERTY
VdW12
SciTegic.value.DoubleValue
7.253

@<SCITEGIC>MOL_PROPERTY
Bond
SciTegic.value.DoubleValue
0.100

@<SCITEGIC>MOL_PROPERTY
Angle
SciTegic.value.DoubleValue
2.262

@<SCITEGIC>MOL_PROPERTY
Pdih
SciTegic.value.DoubleValue
4.738

@<SCITEGIC>MOL_PROPERTY
Idih
SciTegic.value.DoubleValue
0.001

@<SCITEGIC>MOL_PROPERTY
Tether
SciTegic.value.DoubleValue
0.000

@<TRIPOS>MOLECULE
guest-s21_confgen4.mol2 : confsearch ligand conformer 403
          22          21           1
SMALL
USER_CHARGES
 
@<TRIPOS>ATOM
       1    C1      21.974595   15.900308   23.449619 C.2        1 MOL1         0.6145
       2    O1      22.231173   15.114228   22.559283 O.co2      1 MOL1        -0.6735
       3    O2      22.663985   16.044102   24.439832 O.co2      1 MOL1        -0.6735
       4    C2      20.730139   16.769230   23.306392 C.3        1 MOL1        -0.1985
       5    H1      20.329807   16.959164   24.309539 H          1 MOL1         0.0740
       6    H2      19.973866   16.193724   22.759125 H          1 MOL1         0.0740
       7    C3      21.011252   18.108170   22.580882 C.3        1 MOL1        -0.1882
       8    H3      21.779768   18.665814   23.133990 H          1 MOL1         0.0742
       9    H4      21.423098   17.901034   21.583370 H          1 MOL1         0.0742
      10    C4      19.736228   18.969072   22.448563 C.3        1 MOL1        -0.1880
      11    H5      19.327991   19.176278   23.447194 H          1 MOL1         0.0742
      12    H6      18.973318   18.400274   21.901201 H          1 MOL1         0.0742
      13    C5      20.021369   20.302794   21.720457 C.3        1 MOL1        -0.1880
      14    H7      20.835345   20.826702   22.239973 H          1 MOL1         0.0742
      15    H8      20.381894   20.099398   20.702820 H          1 MOL1         0.0742
      16    C6      18.795033   21.242629   21.656293 C.3        1 MOL1        -0.1856
      17    H9      19.111165   22.206070   21.233117 H          1 MOL1         0.0742
      18    H10     18.435395   21.453441   22.672919 H          1 MOL1         0.0742
      19    C7      17.638034   20.680519   20.802129 C.3        1 MOL1        -0.2871
      20    H11     16.831192   21.419659   20.714968 H          1 MOL1         0.0754
      21    H12     17.211391   19.775072   21.251401 H          1 MOL1         0.0754
      22    H13     17.981382   20.433966   19.788986 H          1 MOL1         0.0754
@<TRIPOS>BOND
    1     1     2    1
    2     1     3    2
    3     1     4    1
    4     4     5    1
    5     4     6    1
    6     4     7    1
    7     7     8    1
    8     7     9    1
    9     7    10    1
   10    10    11    1
   11    10    12    1
   12    10    13    1
   13    13    14    1
   14    13    15    1
   15    13    16    1
   16    16    17    1
   17    16    18    1
   18    16    19    1
   19    19    20    1
   20    19    21    1
   21    19    22    1
@<TRIPOS>SUBSTRUCTURE
       1 MOL1            1 RESIDUE      1      MOL     
@<SCITEGIC>MOL_PROPERTY
VConf Rank
SciTegic.value.IntegerValue
403

@<SCITEGIC>MOL_PROPERTY
Conf_Id
SciTegic.value.IntegerValue
37

@<SCITEGIC>MOL_PROPERTY
Delta U+W
SciTegic.value.DoubleValue
-0.345

@<SCITEGIC>MOL_PROPERTY
U+W
SciTegic.value.DoubleValue
-53.504

@<SCITEGIC>MOL_PROPERTY
Grad RMS
SciTegic.value.DoubleValue
0.000000

@<SCITEGIC>MOL_PROPERTY
U
SciTegic.value.DoubleValue
6.751

@<SCITEGIC>MOL_PROPERTY
W
SciTegic.value.DoubleValue
-60.255

@<SCITEGIC>MOL_PROPERTY
W(PB)
SciTegic.value.DoubleValue
-62.592

@<SCITEGIC>MOL_PROPERTY
W(SA)
SciTegic.value.DoubleValue
2.336

@<SCITEGIC>MOL_PROPERTY
Valence
SciTegic.value.DoubleValue
7.602

@<SCITEGIC>MOL_PROPERTY
Coulomb
SciTegic.value.DoubleValue
-1.744

@<SCITEGIC>MOL_PROPERTY
VdW
SciTegic.value.DoubleValue
0.894

@<SCITEGIC>MOL_PROPERTY
VdW6
SciTegic.value.DoubleValue
-7.110

@<SCITEGIC>MOL_PROPERTY
VdW12
SciTegic.value.DoubleValue
8.004

@<SCITEGIC>MOL_PROPERTY
Bond
SciTegic.value.DoubleValue
0.131

@<SCITEGIC>MOL_PROPERTY
Angle
SciTegic.value.DoubleValue
2.489

@<SCITEGIC>MOL_PROPERTY
Pdih
SciTegic.value.DoubleValue
4.982

@<SCITEGIC>MOL_PROPERTY
Idih
SciTegic.value.DoubleValue
0.001

@<SCITEGIC>MOL_PROPERTY
Tether
SciTegic.value.DoubleValue
0.000

@<TRIPOS>MOLECULE
guest-s21_confgen4.mol2 : confsearch ligand conformer 404
          22          21           1
SMALL
USER_CHARGES
 
@<TRIPOS>ATOM
       1    C1      22.323648   19.936424   19.404444 C.2        1 MOL1         0.6145
       2    O1      23.154255   20.743837   19.771360 O.co2      1 MOL1        -0.6735
       3    O2      21.967659   19.814868   18.249042 O.co2      1 MOL1        -0.6735
       4    C2      21.676557   19.041146   20.455140 C.3        1 MOL1        -0.1985
       5    H1      22.417883   18.845272   21.239185 H          1 MOL1         0.0740
       6    H2      21.440501   18.079140   19.984537 H          1 MOL1         0.0740
       7    C3      20.398787   19.662592   21.070985 C.3        1 MOL1        -0.1882
       8    H3      20.649397   20.630435   21.527081 H          1 MOL1         0.0742
       9    H4      19.672553   19.865007   20.271534 H          1 MOL1         0.0742
      10    C4      19.762910   18.737244   22.131053 C.3        1 MOL1        -0.1880
      11    H5      20.498641   18.535795   22.920537 H          1 MOL1         0.0742
      12    H6      19.511438   17.771472   21.671813 H          1 MOL1         0.0742
      13    C5      18.490044   19.363770   22.745497 C.3        1 MOL1        -0.1880
      14    H7      18.747198   20.305262   23.249879 H          1 MOL1         0.0742
      15    H8      17.793689   19.624244   21.936684 H          1 MOL1         0.0742
      16    C6      17.761612   18.427838   23.737832 C.3        1 MOL1        -0.1856
      17    H9      17.497022   17.487387   23.234987 H          1 MOL1         0.0742
      18    H10     16.814006   18.898018   24.034830 H          1 MOL1         0.0742
      19    C7      18.584975   18.123835   25.008213 C.3        1 MOL1        -0.2871
      20    H11     18.886857   19.051257   25.512087 H          1 MOL1         0.0754
      21    H12     19.489572   17.549846   24.771686 H          1 MOL1         0.0754
      22    H13     17.992023   17.531662   25.717197 H          1 MOL1         0.0754
@<TRIPOS>BOND
    1     1     2    1
    2     1     3    2
    3     1     4    1
    4     4     5    1
    5     4     6    1
    6     4     7    1
    7     7     8    1
    8     7     9    1
    9     7    10    1
   10    10    11    1
   11    10    12    1
   12    10    13    1
   13    13    14    1
   14    13    15    1
   15    13    16    1
   16    16    17    1
   17    16    18    1
   18    16    19    1
   19    19    20    1
   20    19    21    1
   21    19    22    1
@<TRIPOS>SUBSTRUCTURE
       1 MOL1            1 RESIDUE      1      MOL     
@<SCITEGIC>MOL_PROPERTY
VConf Rank
SciTegic.value.IntegerValue
404

@<SCITEGIC>MOL_PROPERTY
Conf_Id
SciTegic.value.IntegerValue
38

@<SCITEGIC>MOL_PROPERTY
Delta U+W
SciTegic.value.DoubleValue
-0.439

@<SCITEGIC>MOL_PROPERTY
U+W
SciTegic.value.DoubleValue
-53.598

@<SCITEGIC>MOL_PROPERTY
Grad RMS
SciTegic.value.DoubleValue
0.000000

@<SCITEGIC>MOL_PROPERTY
U
SciTegic.value.DoubleValue
6.751

@<SCITEGIC>MOL_PROPERTY
W
SciTegic.value.DoubleValue
-60.350

@<SCITEGIC>MOL_PROPERTY
W(PB)
SciTegic.value.DoubleValue
-62.659

@<SCITEGIC>MOL_PROPERTY
W(SA)
SciTegic.value.DoubleValue
2.309

@<SCITEGIC>MOL_PROPERTY
Valence
SciTegic.value.DoubleValue
7.602

@<SCITEGIC>MOL_PROPERTY
Coulomb
SciTegic.value.DoubleValue
-1.744

@<SCITEGIC>MOL_PROPERTY
VdW
SciTegic.value.DoubleValue
0.893

@<SCITEGIC>MOL_PROPERTY
VdW6
SciTegic.value.DoubleValue
-7.110

@<SCITEGIC>MOL_PROPERTY
VdW12
SciTegic.value.DoubleValue
8.004

@<SCITEGIC>MOL_PROPERTY
Bond
SciTegic.value.DoubleValue
0.131

@<SCITEGIC>MOL_PROPERTY
Angle
SciTegic.value.DoubleValue
2.489

@<SCITEGIC>MOL_PROPERTY
Pdih
SciTegic.value.DoubleValue
4.981

@<SCITEGIC>MOL_PROPERTY
Idih
SciTegic.value.DoubleValue
0.001

@<SCITEGIC>MOL_PROPERTY
Tether
SciTegic.value.DoubleValue
0.000

@<TRIPOS>MOLECULE
guest-s21_confgen4.mol2 : confsearch ligand conformer 405
          22          21           1
SMALL
USER_CHARGES
 
@<TRIPOS>ATOM
       1    C1      19.118207   16.552822   19.473512 C.2        1 MOL1         0.6145
       2    O1      18.347037   16.777871   18.561804 O.co2      1 MOL1        -0.6735
       3    O2      19.450195   15.434368   19.813182 O.co2      1 MOL1        -0.6735
       4    C2      19.682601   17.738312   20.248342 C.3        1 MOL1        -0.1985
       5    H1      19.773306   18.584372   19.556698 H          1 MOL1         0.0740
       6    H2      20.694987   17.472252   20.571991 H          1 MOL1         0.0740
       7    C3      18.804045   18.132919   21.464086 C.3        1 MOL1        -0.1882
       8    H3      17.775173   18.297088   21.114919 H          1 MOL1         0.0742
       9    H4      18.760300   17.294998   22.173500 H          1 MOL1         0.0742
      10    C4      19.288309   19.409859   22.191847 C.3        1 MOL1        -0.1880
      11    H5      18.530685   19.683646   22.937081 H          1 MOL1         0.0742
      12    H6      19.338943   20.243349   21.478125 H          1 MOL1         0.0742
      13    C5      20.658835   19.236886   22.891675 C.3        1 MOL1        -0.1880
      14    H7      20.608554   18.402214   23.604063 H          1 MOL1         0.0742
      15    H8      21.418048   18.966056   22.147145 H          1 MOL1         0.0742
      16    C6      21.140343   20.512041   23.622596 C.3        1 MOL1        -0.1856
      17    H9      21.180974   21.352261   22.915721 H          1 MOL1         0.0742
      18    H10     22.169841   20.349833   23.970544 H          1 MOL1         0.0742
      19    C7      20.263094   20.893616   24.834821 C.3        1 MOL1        -0.2871
      20    H11     19.252103   21.184272   24.523628 H          1 MOL1         0.0754
      21    H12     20.701498   21.744225   25.372580 H          1 MOL1         0.0754
      22    H13     20.179880   20.055578   25.539017 H          1 MOL1         0.0754
@<TRIPOS>BOND
    1     1     2    1
    2     1     3    2
    3     1     4    1
    4     4     5    1
    5     4     6    1
    6     4     7    1
    7     7     8    1
    8     7     9    1
    9     7    10    1
   10    10    11    1
   11    10    12    1
   12    10    13    1
   13    13    14    1
   14    13    15    1
   15    13    16    1
   16    16    17    1
   17    16    18    1
   18    16    19    1
   19    19    20    1
   20    19    21    1
   21    19    22    1
@<TRIPOS>SUBSTRUCTURE
       1 MOL1            1 RESIDUE      1      MOL     
@<SCITEGIC>MOL_PROPERTY
VConf Rank
SciTegic.value.IntegerValue
405

@<SCITEGIC>MOL_PROPERTY
Conf_Id
SciTegic.value.IntegerValue
60

@<SCITEGIC>MOL_PROPERTY
Delta U+W
SciTegic.value.DoubleValue
0.386

@<SCITEGIC>MOL_PROPERTY
U+W
SciTegic.value.DoubleValue
-52.773

@<SCITEGIC>MOL_PROPERTY
Grad RMS
SciTegic.value.DoubleValue
0.000000

@<SCITEGIC>MOL_PROPERTY
U
SciTegic.value.DoubleValue
7.689

@<SCITEGIC>MOL_PROPERTY
W
SciTegic.value.DoubleValue
-60.463

@<SCITEGIC>MOL_PROPERTY
W(PB)
SciTegic.value.DoubleValue
-62.772

@<SCITEGIC>MOL_PROPERTY
W(SA)
SciTegic.value.DoubleValue
2.309

@<SCITEGIC>MOL_PROPERTY
Valence
SciTegic.value.DoubleValue
8.197

@<SCITEGIC>MOL_PROPERTY
Coulomb
SciTegic.value.DoubleValue
-1.561

@<SCITEGIC>MOL_PROPERTY
VdW
SciTegic.value.DoubleValue
1.053

@<SCITEGIC>MOL_PROPERTY
VdW6
SciTegic.value.DoubleValue
-7.737

@<SCITEGIC>MOL_PROPERTY
VdW12
SciTegic.value.DoubleValue
8.790

@<SCITEGIC>MOL_PROPERTY
Bond
SciTegic.value.DoubleValue
0.181

@<SCITEGIC>MOL_PROPERTY
Angle
SciTegic.value.DoubleValue
2.780

@<SCITEGIC>MOL_PROPERTY
Pdih
SciTegic.value.DoubleValue
5.235

@<SCITEGIC>MOL_PROPERTY
Idih
SciTegic.value.DoubleValue
0.001

@<SCITEGIC>MOL_PROPERTY
Tether
SciTegic.value.DoubleValue
0.000

@<TRIPOS>MOLECULE
guest-s21_confgen4.mol2 : confsearch ligand conformer 406
          22          21           1
SMALL
USER_CHARGES
 
@<TRIPOS>ATOM
       1    C1      18.602036   20.921847   19.279479 C.2        1 MOL1         0.6145
       2    O1      19.541212   21.379605   18.659043 O.co2      1 MOL1        -0.6735
       3    O2      17.463960   21.335822   19.179634 O.co2      1 MOL1        -0.6735
       4    C2      18.870025   19.780209   20.253713 C.3        1 MOL1        -0.1985
       5    H1      19.683838   19.174360   19.840050 H          1 MOL1         0.0740
       6    H2      17.976325   19.145751   20.288054 H          1 MOL1         0.0740
       7    C3      19.227069   20.279092   21.678230 C.3        1 MOL1        -0.1882
       8    H3      20.150866   20.872694   21.639108 H          1 MOL1         0.0742
       9    H4      18.435514   20.960276   22.020102 H          1 MOL1         0.0742
      10    C4      19.380396   19.140336   22.714786 C.3        1 MOL1        -0.1880
      11    H5      18.458348   18.544051   22.745436 H          1 MOL1         0.0742
      12    H6      19.489105   19.596869   23.706798 H          1 MOL1         0.0742
      13    C5      20.591767   18.216011   22.438704 C.3        1 MOL1        -0.1880
      14    H7      20.482794   17.756346   21.448294 H          1 MOL1         0.0742
      15    H8      21.513513   18.812694   22.406197 H          1 MOL1         0.0742
      16    C6      20.747236   17.080761   23.477526 C.3        1 MOL1        -0.1856
      17    H9      21.537024   16.397653   23.135700 H          1 MOL1         0.0742
      18    H10     19.822850   16.488408   23.521376 H          1 MOL1         0.0742
      19    C7      21.108793   17.586715   24.891011 C.3        1 MOL1        -0.2871
      20    H11     22.011634   18.210717   24.866049 H          1 MOL1         0.0754
      21    H12     21.301614   16.740656   25.563263 H          1 MOL1         0.0754
      22    H13     20.293536   18.177010   25.327284 H          1 MOL1         0.0754
@<TRIPOS>BOND
    1     1     2    1
    2     1     3    2
    3     1     4    1
    4     4     5    1
    5     4     6    1
    6     4     7    1
    7     7     8    1
    8     7     9    1
    9     7    10    1
   10    10    11    1
   11    10    12    1
   12    10    13    1
   13    13    14    1
   14    13    15    1
   15    13    16    1
   16    16    17    1
   17    16    18    1
   18    16    19    1
   19    19    20    1
   20    19    21    1
   21    19    22    1
@<TRIPOS>SUBSTRUCTURE
       1 MOL1            1 RESIDUE      1      MOL     
@<SCITEGIC>MOL_PROPERTY
VConf Rank
SciTegic.value.IntegerValue
406

@<SCITEGIC>MOL_PROPERTY
Conf_Id
SciTegic.value.IntegerValue
28

@<SCITEGIC>MOL_PROPERTY
Delta U+W
SciTegic.value.DoubleValue
0.351

@<SCITEGIC>MOL_PROPERTY
U+W
SciTegic.value.DoubleValue
-52.808

@<SCITEGIC>MOL_PROPERTY
Grad RMS
SciTegic.value.DoubleValue
0.000000

@<SCITEGIC>MOL_PROPERTY
U
SciTegic.value.DoubleValue
7.689

@<SCITEGIC>MOL_PROPERTY
W
SciTegic.value.DoubleValue
-60.498

@<SCITEGIC>MOL_PROPERTY
W(PB)
SciTegic.value.DoubleValue
-62.768

@<SCITEGIC>MOL_PROPERTY
W(SA)
SciTegic.value.DoubleValue
2.270

@<SCITEGIC>MOL_PROPERTY
Valence
SciTegic.value.DoubleValue
8.197

@<SCITEGIC>MOL_PROPERTY
Coulomb
SciTegic.value.DoubleValue
-1.561

@<SCITEGIC>MOL_PROPERTY
VdW
SciTegic.value.DoubleValue
1.053

@<SCITEGIC>MOL_PROPERTY
VdW6
SciTegic.value.DoubleValue
-7.737

@<SCITEGIC>MOL_PROPERTY
VdW12
SciTegic.value.DoubleValue
8.791

@<SCITEGIC>MOL_PROPERTY
Bond
SciTegic.value.DoubleValue
0.181

@<SCITEGIC>MOL_PROPERTY
Angle
SciTegic.value.DoubleValue
2.780

@<SCITEGIC>MOL_PROPERTY
Pdih
SciTegic.value.DoubleValue
5.235

@<SCITEGIC>MOL_PROPERTY
Idih
SciTegic.value.DoubleValue
0.001

@<SCITEGIC>MOL_PROPERTY
Tether
SciTegic.value.DoubleValue
0.000

@<TRIPOS>MOLECULE
guest-s21_confgen4.mol2 : confsearch ligand conformer 407
          22          21           1
SMALL
USER_CHARGES
 
@<TRIPOS>ATOM
       1    C1      18.092097   18.098703   19.100075 C.2        1 MOL1         0.6145
       2    O1      17.504177   17.036233   19.055600 O.co2      1 MOL1        -0.6735
       3    O2      17.635307   19.139194   18.669754 O.co2      1 MOL1        -0.6735
       4    C2      19.470946   18.131879   19.749689 C.3        1 MOL1        -0.1985
       5    H1      20.066961   18.901824   19.245108 H          1 MOL1         0.0740
       6    H2      19.959368   17.168266   19.561248 H          1 MOL1         0.0740
       7    C3      19.412433   18.413896   21.271308 C.3        1 MOL1        -0.1882
       8    H3      18.902233   19.372238   21.434853 H          1 MOL1         0.0742
       9    H4      18.805197   17.639781   21.760507 H          1 MOL1         0.0742
      10    C4      20.823483   18.446712   21.902909 C.3        1 MOL1        -0.1880
      11    H5      21.413575   19.255443   21.450433 H          1 MOL1         0.0742
      12    H6      21.344159   17.509781   21.662040 H          1 MOL1         0.0742
      13    C5      20.806613   18.616075   23.440633 C.3        1 MOL1        -0.1880
      14    H7      20.220002   17.805241   23.893806 H          1 MOL1         0.0742
      15    H8      21.833422   18.502705   23.814447 H          1 MOL1         0.0742
      16    C6      20.252376   19.982094   23.904427 C.3        1 MOL1        -0.1856
      17    H9      19.200070   20.083912   23.608380 H          1 MOL1         0.0742
      18    H10     20.804748   20.793297   23.410421 H          1 MOL1         0.0742
      19    C7      20.360721   20.146282   25.433812 C.3        1 MOL1        -0.2871
      20    H11     21.406649   20.088452   25.762515 H          1 MOL1         0.0754
      21    H12     19.793921   19.362793   25.953686 H          1 MOL1         0.0754
      22    H13     19.960437   21.119089   25.747638 H          1 MOL1         0.0754
@<TRIPOS>BOND
    1     1     2    1
    2     1     3    2
    3     1     4    1
    4     4     5    1
    5     4     6    1
    6     4     7    1
    7     7     8    1
    8     7     9    1
    9     7    10    1
   10    10    11    1
   11    10    12    1
   12    10    13    1
   13    13    14    1
   14    13    15    1
   15    13    16    1
   16    16    17    1
   17    16    18    1
   18    16    19    1
   19    19    20    1
   20    19    21    1
   21    19    22    1
@<TRIPOS>SUBSTRUCTURE
       1 MOL1            1 RESIDUE      1      MOL     
@<SCITEGIC>MOL_PROPERTY
VConf Rank
SciTegic.value.IntegerValue
407

@<SCITEGIC>MOL_PROPERTY
Conf_Id
SciTegic.value.IntegerValue
50

@<SCITEGIC>MOL_PROPERTY
Delta U+W
SciTegic.value.DoubleValue
-0.486

@<SCITEGIC>MOL_PROPERTY
U+W
SciTegic.value.DoubleValue
-53.646

@<SCITEGIC>MOL_PROPERTY
Grad RMS
SciTegic.value.DoubleValue
0.000000

@<SCITEGIC>MOL_PROPERTY
U
SciTegic.value.DoubleValue
7.026

@<SCITEGIC>MOL_PROPERTY
W
SciTegic.value.DoubleValue
-60.672

@<SCITEGIC>MOL_PROPERTY
W(PB)
SciTegic.value.DoubleValue
-62.964

@<SCITEGIC>MOL_PROPERTY
W(SA)
SciTegic.value.DoubleValue
2.292

@<SCITEGIC>MOL_PROPERTY
Valence
SciTegic.value.DoubleValue
7.637

@<SCITEGIC>MOL_PROPERTY
Coulomb
SciTegic.value.DoubleValue
-1.488

@<SCITEGIC>MOL_PROPERTY
VdW
SciTegic.value.DoubleValue
0.877

@<SCITEGIC>MOL_PROPERTY
VdW6
SciTegic.value.DoubleValue
-7.165

@<SCITEGIC>MOL_PROPERTY
VdW12
SciTegic.value.DoubleValue
8.043

@<SCITEGIC>MOL_PROPERTY
Bond
SciTegic.value.DoubleValue
0.134

@<SCITEGIC>MOL_PROPERTY
Angle
SciTegic.value.DoubleValue
2.513

@<SCITEGIC>MOL_PROPERTY
Pdih
SciTegic.value.DoubleValue
4.990

@<SCITEGIC>MOL_PROPERTY
Idih
SciTegic.value.DoubleValue
0.001

@<SCITEGIC>MOL_PROPERTY
Tether
SciTegic.value.DoubleValue
0.000

@<TRIPOS>MOLECULE
guest-s21_confgen4.mol2 : confsearch ligand conformer 408
          22          21           1
SMALL
USER_CHARGES
 
@<TRIPOS>ATOM
       1    C1      18.819620   17.023698   25.281839 C.2        1 MOL1         0.6145
       2    O1      18.228863   15.979077   25.091458 O.co2      1 MOL1        -0.6735
       3    O2      18.532897   17.807809   26.164684 O.co2      1 MOL1        -0.6735
       4    C2      19.971313   17.379904   24.348540 C.3        1 MOL1        -0.1985
       5    H1      20.458571   16.447851   24.037940 H          1 MOL1         0.0740
       6    H2      20.708195   17.956015   24.921035 H          1 MOL1         0.0740
       7    C3      19.512845   18.183867   23.106868 C.3        1 MOL1        -0.1882
       8    H3      18.769081   17.597671   22.549650 H          1 MOL1         0.0742
       9    H4      19.011333   19.100710   23.443547 H          1 MOL1         0.0742
      10    C4      20.700387   18.535203   22.180922 C.3        1 MOL1        -0.1880
      11    H5      21.233587   17.611264   21.918249 H          1 MOL1         0.0742
      12    H6      21.418994   19.165554   22.722446 H          1 MOL1         0.0742
      13    C5      20.273704   19.242927   20.873012 C.3        1 MOL1        -0.1880
      14    H7      21.156266   19.339932   20.226017 H          1 MOL1         0.0742
      15    H8      19.558110   18.611146   20.329219 H          1 MOL1         0.0742
      16    C6      19.663065   20.644135   21.101102 C.3        1 MOL1        -0.1856
      17    H9      20.356776   21.259318   21.690611 H          1 MOL1         0.0742
      18    H10     18.734486   20.562545   21.681139 H          1 MOL1         0.0742
      19    C7      19.359001   21.352445   19.765602 C.3        1 MOL1        -0.2871
      20    H11     18.645370   20.771389   19.166861 H          1 MOL1         0.0754
      21    H12     20.274155   21.486247   19.174039 H          1 MOL1         0.0754
      22    H13     18.923246   22.344051   19.944215 H          1 MOL1         0.0754
@<TRIPOS>BOND
    1     1     2    1
    2     1     3    2
    3     1     4    1
    4     4     5    1
    5     4     6    1
    6     4     7    1
    7     7     8    1
    8     7     9    1
    9     7    10    1
   10    10    11    1
   11    10    12    1
   12    10    13    1
   13    13    14    1
   14    13    15    1
   15    13    16    1
   16    16    17    1
   17    16    18    1
   18    16    19    1
   19    19    20    1
   20    19    21    1
   21    19    22    1
@<TRIPOS>SUBSTRUCTURE
       1 MOL1            1 RESIDUE      1      MOL     
@<SCITEGIC>MOL_PROPERTY
VConf Rank
SciTegic.value.IntegerValue
408

@<SCITEGIC>MOL_PROPERTY
Conf_Id
SciTegic.value.IntegerValue
51

@<SCITEGIC>MOL_PROPERTY
Delta U+W
SciTegic.value.DoubleValue
-0.517

@<SCITEGIC>MOL_PROPERTY
U+W
SciTegic.value.DoubleValue
-53.677

@<SCITEGIC>MOL_PROPERTY
Grad RMS
SciTegic.value.DoubleValue
0.000000

@<SCITEGIC>MOL_PROPERTY
U
SciTegic.value.DoubleValue
7.026

@<SCITEGIC>MOL_PROPERTY
W
SciTegic.value.DoubleValue
-60.703

@<SCITEGIC>MOL_PROPERTY
W(PB)
SciTegic.value.DoubleValue
-63.007

@<SCITEGIC>MOL_PROPERTY
W(SA)
SciTegic.value.DoubleValue
2.304

@<SCITEGIC>MOL_PROPERTY
Valence
SciTegic.value.DoubleValue
7.638

@<SCITEGIC>MOL_PROPERTY
Coulomb
SciTegic.value.DoubleValue
-1.488

@<SCITEGIC>MOL_PROPERTY
VdW
SciTegic.value.DoubleValue
0.877

@<SCITEGIC>MOL_PROPERTY
VdW6
SciTegic.value.DoubleValue
-7.165

@<SCITEGIC>MOL_PROPERTY
VdW12
SciTegic.value.DoubleValue
8.042

@<SCITEGIC>MOL_PROPERTY
Bond
SciTegic.value.DoubleValue
0.134

@<SCITEGIC>MOL_PROPERTY
Angle
SciTegic.value.DoubleValue
2.513

@<SCITEGIC>MOL_PROPERTY
Pdih
SciTegic.value.DoubleValue
4.990

@<SCITEGIC>MOL_PROPERTY
Idih
SciTegic.value.DoubleValue
0.001

@<SCITEGIC>MOL_PROPERTY
Tether
SciTegic.value.DoubleValue
0.000

@<TRIPOS>MOLECULE
guest-s21_confgen4.mol2 : confsearch ligand conformer 409
          22          21           1
SMALL
USER_CHARGES
 
@<TRIPOS>ATOM
       1    C1      20.295438   19.494130   18.958424 C.2        1 MOL1         0.6145
       2    O1      19.842134   18.605396   18.264472 O.co2      1 MOL1        -0.6735
       3    O2      19.878422   20.635509   18.946516 O.co2      1 MOL1        -0.6735
       4    C2      21.464783   19.160664   19.880685 C.3        1 MOL1        -0.1985
       5    H1      21.966571   20.094558   20.161675 H          1 MOL1         0.0740
       6    H2      22.185945   18.575949   19.297525 H          1 MOL1         0.0740
       7    C3      21.060445   18.367018   21.150185 C.3        1 MOL1        -0.1882
       8    H3      20.534542   17.448905   20.853287 H          1 MOL1         0.0742
       9    H4      21.970490   18.053091   21.679156 H          1 MOL1         0.0742
      10    C4      20.172820   19.191844   22.109023 C.3        1 MOL1        -0.1880
      11    H5      19.251943   19.495257   21.591979 H          1 MOL1         0.0742
      12    H6      20.697544   20.114561   22.392346 H          1 MOL1         0.0742
      13    C5      19.808573   18.393976   23.379528 C.3        1 MOL1        -0.1880
      14    H7      19.283866   17.471452   23.095379 H          1 MOL1         0.0742
      15    H8      20.727799   18.091862   23.899921 H          1 MOL1         0.0742
      16    C6      18.921501   19.216775   24.337207 C.3        1 MOL1        -0.1856
      17    H9      18.000057   19.519283   23.820551 H          1 MOL1         0.0742
      18    H10     19.443837   20.139710   24.624988 H          1 MOL1         0.0742
      19    C7      18.559280   18.416591   25.604431 C.3        1 MOL1        -0.2871
      20    H11     18.007612   17.502760   25.347576 H          1 MOL1         0.0754
      21    H12     17.928726   19.016336   26.273605 H          1 MOL1         0.0754
      22    H13     19.462304   18.127800   26.158094 H          1 MOL1         0.0754
@<TRIPOS>BOND
    1     1     2    1
    2     1     3    2
    3     1     4    1
    4     4     5    1
    5     4     6    1
    6     4     7    1
    7     7     8    1
    8     7     9    1
    9     7    10    1
   10    10    11    1
   11    10    12    1
   12    10    13    1
   13    13    14    1
   14    13    15    1
   15    13    16    1
   16    16    17    1
   17    16    18    1
   18    16    19    1
   19    19    20    1
   20    19    21    1
   21    19    22    1
@<TRIPOS>SUBSTRUCTURE
       1 MOL1            1 RESIDUE      1      MOL     
@<SCITEGIC>MOL_PROPERTY
VConf Rank
SciTegic.value.IntegerValue
409

@<SCITEGIC>MOL_PROPERTY
Conf_Id
SciTegic.value.IntegerValue
43

@<SCITEGIC>MOL_PROPERTY
Delta U+W
SciTegic.value.DoubleValue
-0.129

@<SCITEGIC>MOL_PROPERTY
U+W
SciTegic.value.DoubleValue
-53.289

@<SCITEGIC>MOL_PROPERTY
Grad RMS
SciTegic.value.DoubleValue
0.000000

@<SCITEGIC>MOL_PROPERTY
U
SciTegic.value.DoubleValue
7.937

@<SCITEGIC>MOL_PROPERTY
W
SciTegic.value.DoubleValue
-61.225

@<SCITEGIC>MOL_PROPERTY
W(PB)
SciTegic.value.DoubleValue
-63.523

@<SCITEGIC>MOL_PROPERTY
W(SA)
SciTegic.value.DoubleValue
2.297

@<SCITEGIC>MOL_PROPERTY
Valence
SciTegic.value.DoubleValue
7.358

@<SCITEGIC>MOL_PROPERTY
Coulomb
SciTegic.value.DoubleValue
-0.022

@<SCITEGIC>MOL_PROPERTY
VdW
SciTegic.value.DoubleValue
0.601

@<SCITEGIC>MOL_PROPERTY
VdW6
SciTegic.value.DoubleValue
-7.363

@<SCITEGIC>MOL_PROPERTY
VdW12
SciTegic.value.DoubleValue
7.964

@<SCITEGIC>MOL_PROPERTY
Bond
SciTegic.value.DoubleValue
0.121

@<SCITEGIC>MOL_PROPERTY
Angle
SciTegic.value.DoubleValue
2.425

@<SCITEGIC>MOL_PROPERTY
Pdih
SciTegic.value.DoubleValue
4.811

@<SCITEGIC>MOL_PROPERTY
Idih
SciTegic.value.DoubleValue
0.000

@<SCITEGIC>MOL_PROPERTY
Tether
SciTegic.value.DoubleValue
0.000

@<TRIPOS>MOLECULE
guest-s21_confgen4.mol2 : confsearch ligand conformer 410
          22          21           1
SMALL
USER_CHARGES
 
@<TRIPOS>ATOM
       1    C1      19.905072   21.930432   20.387854 C.2        1 MOL1         0.6145
       2    O1      21.005201   22.095552   19.898617 O.co2      1 MOL1        -0.6735
       3    O2      19.387810   22.714069   21.159311 O.co2      1 MOL1        -0.6735
       4    C2      19.124602   20.678769   19.996272 C.3        1 MOL1        -0.1985
       5    H1      19.199298   20.572977   18.907571 H          1 MOL1         0.0740
       6    H2      18.064730   20.840281   20.227546 H          1 MOL1         0.0740
       7    C3      19.629931   19.381071   20.678636 C.3        1 MOL1        -0.1882
       8    H3      19.108218   18.520519   20.238401 H          1 MOL1         0.0742
       9    H4      20.698872   19.248029   20.461109 H          1 MOL1         0.0742
      10    C4      19.403598   19.386518   22.207142 C.3        1 MOL1        -0.1880
      11    H5      18.335646   19.532899   22.419427 H          1 MOL1         0.0742
      12    H6      19.936884   20.235301   22.657234 H          1 MOL1         0.0742
      13    C5      19.884869   18.073416   22.861053 C.3        1 MOL1        -0.1880
      14    H7      19.350941   17.223310   22.414624 H          1 MOL1         0.0742
      15    H8      20.952887   17.927780   22.648362 H          1 MOL1         0.0742
      16    C6      19.659869   18.078430   24.387618 C.3        1 MOL1        -0.1856
      17    H9      18.592233   18.222257   24.604249 H          1 MOL1         0.0742
      18    H10     20.194070   18.926571   24.837940 H          1 MOL1         0.0742
      19    C7      20.142218   16.765902   25.037208 C.3        1 MOL1        -0.2871
      20    H11     19.601372   15.902858   24.627286 H          1 MOL1         0.0754
      21    H12     19.974794   16.786764   26.121929 H          1 MOL1         0.0754
      22    H13     21.215271   16.612528   24.862755 H          1 MOL1         0.0754
@<TRIPOS>BOND
    1     1     2    1
    2     1     3    2
    3     1     4    1
    4     4     5    1
    5     4     6    1
    6     4     7    1
    7     7     8    1
    8     7     9    1
    9     7    10    1
   10    10    11    1
   11    10    12    1
   12    10    13    1
   13    13    14    1
   14    13    15    1
   15    13    16    1
   16    16    17    1
   17    16    18    1
   18    16    19    1
   19    19    20    1
   20    19    21    1
   21    19    22    1
@<TRIPOS>SUBSTRUCTURE
       1 MOL1            1 RESIDUE      1      MOL     
@<SCITEGIC>MOL_PROPERTY
VConf Rank
SciTegic.value.IntegerValue
410

@<SCITEGIC>MOL_PROPERTY
Conf_Id
SciTegic.value.IntegerValue
44

@<SCITEGIC>MOL_PROPERTY
Delta U+W
SciTegic.value.DoubleValue
-0.155

@<SCITEGIC>MOL_PROPERTY
U+W
SciTegic.value.DoubleValue
-53.314

@<SCITEGIC>MOL_PROPERTY
Grad RMS
SciTegic.value.DoubleValue
0.000000

@<SCITEGIC>MOL_PROPERTY
U
SciTegic.value.DoubleValue
7.937

@<SCITEGIC>MOL_PROPERTY
W
SciTegic.value.DoubleValue
-61.252

@<SCITEGIC>MOL_PROPERTY
W(PB)
SciTegic.value.DoubleValue
-63.556

@<SCITEGIC>MOL_PROPERTY
W(SA)
SciTegic.value.DoubleValue
2.304

@<SCITEGIC>MOL_PROPERTY
Valence
SciTegic.value.DoubleValue
7.358

@<SCITEGIC>MOL_PROPERTY
Coulomb
SciTegic.value.DoubleValue
-0.021

@<SCITEGIC>MOL_PROPERTY
VdW
SciTegic.value.DoubleValue
0.600

@<SCITEGIC>MOL_PROPERTY
VdW6
SciTegic.value.DoubleValue
-7.363

@<SCITEGIC>MOL_PROPERTY
VdW12
SciTegic.value.DoubleValue
7.964

@<SCITEGIC>MOL_PROPERTY
Bond
SciTegic.value.DoubleValue
0.121

@<SCITEGIC>MOL_PROPERTY
Angle
SciTegic.value.DoubleValue
2.425

@<SCITEGIC>MOL_PROPERTY
Pdih
SciTegic.value.DoubleValue
4.811

@<SCITEGIC>MOL_PROPERTY
Idih
SciTegic.value.DoubleValue
0.001

@<SCITEGIC>MOL_PROPERTY
Tether
SciTegic.value.DoubleValue
0.000

@<TRIPOS>MOLECULE
guest-s21_confgen4.mol2 : confsearch ligand conformer 411
          22          21           1
SMALL
USER_CHARGES
 
@<TRIPOS>ATOM
       1    C1      22.574863   18.990506   24.427365 C.2        1 MOL1         0.6145
       2    O1      23.575274   19.351803   23.839517 O.co2      1 MOL1        -0.6735
       3    O2      22.516710   17.976669   25.094911 O.co2      1 MOL1        -0.6735
       4    C2      21.330429   19.869399   24.336567 C.3        1 MOL1        -0.1985
       5    H1      21.649098   20.905369   24.501638 H          1 MOL1         0.0740
       6    H2      20.656490   19.609361   25.161840 H          1 MOL1         0.0740
       7    C3      20.581814   19.768097   22.981968 C.3        1 MOL1        -0.1882
       8    H3      19.803995   20.541728   22.956316 H          1 MOL1         0.0742
       9    H4      21.279551   19.991791   22.163112 H          1 MOL1         0.0742
      10    C4      19.941126   18.376858   22.760198 C.3        1 MOL1        -0.1880
      11    H5      19.212723   18.172906   23.556838 H          1 MOL1         0.0742
      12    H6      20.717719   17.604564   22.846552 H          1 MOL1         0.0742
      13    C5      19.256951   18.225757   21.380742 C.3        1 MOL1        -0.1880
      14    H7      19.985676   18.430012   20.584402 H          1 MOL1         0.0742
      15    H8      18.949326   17.178216   21.258566 H          1 MOL1         0.0742
      16    C6      18.020113   19.134900   21.201535 C.3        1 MOL1        -0.1856
      17    H9      18.317558   20.190976   21.239548 H          1 MOL1         0.0742
      18    H10     17.315713   18.969661   22.028403 H          1 MOL1         0.0742
      19    C7      17.308463   18.863158   19.860845 C.3        1 MOL1        -0.2871
      20    H11     17.982908   19.047107   19.014281 H          1 MOL1         0.0754
      21    H12     16.434975   19.518217   19.746922 H          1 MOL1         0.0754
      22    H13     16.961581   17.823097   19.803378 H          1 MOL1         0.0754
@<TRIPOS>BOND
    1     1     2    1
    2     1     3    2
    3     1     4    1
    4     4     5    1
    5     4     6    1
    6     4     7    1
    7     7     8    1
    8     7     9    1
    9     7    10    1
   10    10    11    1
   11    10    12    1
   12    10    13    1
   13    13    14    1
   14    13    15    1
   15    13    16    1
   16    16    17    1
   17    16    18    1
   18    16    19    1
   19    19    20    1
   20    19    21    1
   21    19    22    1
@<TRIPOS>SUBSTRUCTURE
       1 MOL1            1 RESIDUE      1      MOL     
@<SCITEGIC>MOL_PROPERTY
VConf Rank
SciTegic.value.IntegerValue
411

@<SCITEGIC>MOL_PROPERTY
Conf_Id
SciTegic.value.IntegerValue
53

@<SCITEGIC>MOL_PROPERTY
Delta U+W
SciTegic.value.DoubleValue
0.723

@<SCITEGIC>MOL_PROPERTY
U+W
SciTegic.value.DoubleValue
-52.436

@<SCITEGIC>MOL_PROPERTY
Grad RMS
SciTegic.value.DoubleValue
0.000000

@<SCITEGIC>MOL_PROPERTY
U
SciTegic.value.DoubleValue
8.587

@<SCITEGIC>MOL_PROPERTY
W
SciTegic.value.DoubleValue
-61.022

@<SCITEGIC>MOL_PROPERTY
W(PB)
SciTegic.value.DoubleValue
-63.285

@<SCITEGIC>MOL_PROPERTY
W(SA)
SciTegic.value.DoubleValue
2.263

@<SCITEGIC>MOL_PROPERTY
Valence
SciTegic.value.DoubleValue
7.933

@<SCITEGIC>MOL_PROPERTY
Coulomb
SciTegic.value.DoubleValue
-0.124

@<SCITEGIC>MOL_PROPERTY
VdW
SciTegic.value.DoubleValue
0.778

@<SCITEGIC>MOL_PROPERTY
VdW6
SciTegic.value.DoubleValue
-7.981

@<SCITEGIC>MOL_PROPERTY
VdW12
SciTegic.value.DoubleValue
8.759

@<SCITEGIC>MOL_PROPERTY
Bond
SciTegic.value.DoubleValue
0.160

@<SCITEGIC>MOL_PROPERTY
Angle
SciTegic.value.DoubleValue
2.698

@<SCITEGIC>MOL_PROPERTY
Pdih
SciTegic.value.DoubleValue
5.074

@<SCITEGIC>MOL_PROPERTY
Idih
SciTegic.value.DoubleValue
0.001

@<SCITEGIC>MOL_PROPERTY
Tether
SciTegic.value.DoubleValue
0.000

@<TRIPOS>MOLECULE
guest-s21_confgen4.mol2 : confsearch ligand conformer 412
          22          21           1
SMALL
USER_CHARGES
 
@<TRIPOS>ATOM
       1    C1      22.291912   17.052800   21.327825 C.2        1 MOL1         0.6145
       2    O1      22.248583   15.996199   21.926395 O.co2      1 MOL1        -0.6735
       3    O2      23.095669   17.295745   20.449455 O.co2      1 MOL1        -0.6735
       4    C2      21.267539   18.124571   21.682744 C.3        1 MOL1        -0.1985
       5    H1      21.727613   19.105392   21.513614 H          1 MOL1         0.0740
       6    H2      21.056231   18.038696   22.754519 H          1 MOL1         0.0740
       7    C3      19.958124   17.997953   20.863883 C.3        1 MOL1        -0.1882
       8    H3      20.213987   17.949015   19.796381 H          1 MOL1         0.0742
       9    H4      19.470859   17.043651   21.107063 H          1 MOL1         0.0742
      10    C4      18.956914   19.161211   21.076195 C.3        1 MOL1        -0.1880
      11    H5      18.099429   18.984435   20.412556 H          1 MOL1         0.0742
      12    H6      19.402272   20.108266   20.741983 H          1 MOL1         0.0742
      13    C5      18.425027   19.299031   22.525268 C.3        1 MOL1        -0.1880
      14    H7      17.371090   19.606083   22.481366 H          1 MOL1         0.0742
      15    H8      18.437665   18.321546   23.026593 H          1 MOL1         0.0742
      16    C6      19.195313   20.344816   23.364165 C.3        1 MOL1        -0.1856
      17    H9      19.124983   21.328443   22.879680 H          1 MOL1         0.0742
      18    H10     20.261661   20.093571   23.410460 H          1 MOL1         0.0742
      19    C7      18.635788   20.442840   24.797571 C.3        1 MOL1        -0.2871
      20    H11     17.577131   20.733485   24.787396 H          1 MOL1         0.0754
      21    H12     19.187829   21.193562   25.377829 H          1 MOL1         0.0754
      22    H13     18.722369   19.480557   25.318987 H          1 MOL1         0.0754
@<TRIPOS>BOND
    1     1     2    1
    2     1     3    2
    3     1     4    1
    4     4     5    1
    5     4     6    1
    6     4     7    1
    7     7     8    1
    8     7     9    1
    9     7    10    1
   10    10    11    1
   11    10    12    1
   12    10    13    1
   13    13    14    1
   14    13    15    1
   15    13    16    1
   16    16    17    1
   17    16    18    1
   18    16    19    1
   19    19    20    1
   20    19    21    1
   21    19    22    1
@<TRIPOS>SUBSTRUCTURE
       1 MOL1            1 RESIDUE      1      MOL     
@<SCITEGIC>MOL_PROPERTY
VConf Rank
SciTegic.value.IntegerValue
412

@<SCITEGIC>MOL_PROPERTY
Conf_Id
SciTegic.value.IntegerValue
5

@<SCITEGIC>MOL_PROPERTY
Delta U+W
SciTegic.value.DoubleValue
2.167

@<SCITEGIC>MOL_PROPERTY
U+W
SciTegic.value.DoubleValue
-50.993

@<SCITEGIC>MOL_PROPERTY
Grad RMS
SciTegic.value.DoubleValue
0.000000

@<SCITEGIC>MOL_PROPERTY
U
SciTegic.value.DoubleValue
10.045

@<SCITEGIC>MOL_PROPERTY
W
SciTegic.value.DoubleValue
-61.037

@<SCITEGIC>MOL_PROPERTY
W(PB)
SciTegic.value.DoubleValue
-63.303

@<SCITEGIC>MOL_PROPERTY
W(SA)
SciTegic.value.DoubleValue
2.266

@<SCITEGIC>MOL_PROPERTY
Valence
SciTegic.value.DoubleValue
10.100

@<SCITEGIC>MOL_PROPERTY
Coulomb
SciTegic.value.DoubleValue
-0.883

@<SCITEGIC>MOL_PROPERTY
VdW
SciTegic.value.DoubleValue
0.828

@<SCITEGIC>MOL_PROPERTY
VdW6
SciTegic.value.DoubleValue
-8.177

@<SCITEGIC>MOL_PROPERTY
VdW12
SciTegic.value.DoubleValue
9.005

@<SCITEGIC>MOL_PROPERTY
Bond
SciTegic.value.DoubleValue
0.182

@<SCITEGIC>MOL_PROPERTY
Angle
SciTegic.value.DoubleValue
2.988

@<SCITEGIC>MOL_PROPERTY
Pdih
SciTegic.value.DoubleValue
6.930

@<SCITEGIC>MOL_PROPERTY
Idih
SciTegic.value.DoubleValue
0.001

@<SCITEGIC>MOL_PROPERTY
Tether
SciTegic.value.DoubleValue
0.000

@<TRIPOS>MOLECULE
guest-s21_confgen4.mol2 : confsearch ligand conformer 413
          22          21           1
SMALL
USER_CHARGES
 
@<TRIPOS>ATOM
       1    C1      17.993007   17.343914   24.634754 C.2        1 MOL1         0.6145
       2    O1      18.714638   16.690479   25.361969 O.co2      1 MOL1        -0.6735
       3    O2      16.780215   17.339304   24.710236 O.co2      1 MOL1        -0.6735
       4    C2      18.643690   18.198974   23.553327 C.3        1 MOL1        -0.1985
       5    H1      19.600437   18.559653   23.947375 H          1 MOL1         0.0740
       6    H2      18.005843   19.073966   23.380635 H          1 MOL1         0.0740
       7    C3      18.863991   17.425958   22.228542 C.3        1 MOL1        -0.1882
       8    H3      19.568236   16.601122   22.404439 H          1 MOL1         0.0742
       9    H4      17.914197   16.960706   21.930459 H          1 MOL1         0.0742
      10    C4      19.371831   18.301112   21.055139 C.3        1 MOL1        -0.1880
      11    H5      18.626578   19.069243   20.807096 H          1 MOL1         0.0742
      12    H6      19.441958   17.656426   20.168342 H          1 MOL1         0.0742
      13    C5      20.758375   18.952805   21.288598 C.3        1 MOL1        -0.1880
      14    H7      21.354107   18.336753   21.976018 H          1 MOL1         0.0742
      15    H8      21.304007   18.960996   20.335072 H          1 MOL1         0.0742
      16    C6      20.672797   20.407579   21.805383 C.3        1 MOL1        -0.1856
      17    H9      20.108388   20.451493   22.744467 H          1 MOL1         0.0742
      18    H10     20.123896   21.023527   21.079772 H          1 MOL1         0.0742
      19    C7      22.073800   21.011604   22.028266 C.3        1 MOL1        -0.2871
      20    H11     22.635486   20.434465   22.774442 H          1 MOL1         0.0754
      21    H12     21.996406   22.045877   22.387881 H          1 MOL1         0.0754
      22    H13     22.651587   21.019617   21.094762 H          1 MOL1         0.0754
@<TRIPOS>BOND
    1     1     2    1
    2     1     3    2
    3     1     4    1
    4     4     5    1
    5     4     6    1
    6     4     7    1
    7     7     8    1
    8     7     9    1
    9     7    10    1
   10    10    11    1
   11    10    12    1
   12    10    13    1
   13    13    14    1
   14    13    15    1
   15    13    16    1
   16    16    17    1
   17    16    18    1
   18    16    19    1
   19    19    20    1
   20    19    21    1
   21    19    22    1
@<TRIPOS>SUBSTRUCTURE
       1 MOL1            1 RESIDUE      1      MOL     
@<SCITEGIC>MOL_PROPERTY
VConf Rank
SciTegic.value.IntegerValue
413

@<SCITEGIC>MOL_PROPERTY
Conf_Id
SciTegic.value.IntegerValue
6

@<SCITEGIC>MOL_PROPERTY
Delta U+W
SciTegic.value.DoubleValue
2.118

@<SCITEGIC>MOL_PROPERTY
U+W
SciTegic.value.DoubleValue
-51.042

@<SCITEGIC>MOL_PROPERTY
Grad RMS
SciTegic.value.DoubleValue
0.000000

@<SCITEGIC>MOL_PROPERTY
U
SciTegic.value.DoubleValue
10.045

@<SCITEGIC>MOL_PROPERTY
W
SciTegic.value.DoubleValue
-61.086

@<SCITEGIC>MOL_PROPERTY
W(PB)
SciTegic.value.DoubleValue
-63.356

@<SCITEGIC>MOL_PROPERTY
W(SA)
SciTegic.value.DoubleValue
2.270

@<SCITEGIC>MOL_PROPERTY
Valence
SciTegic.value.DoubleValue
10.100

@<SCITEGIC>MOL_PROPERTY
Coulomb
SciTegic.value.DoubleValue
-0.883

@<SCITEGIC>MOL_PROPERTY
VdW
SciTegic.value.DoubleValue
0.828

@<SCITEGIC>MOL_PROPERTY
VdW6
SciTegic.value.DoubleValue
-8.177

@<SCITEGIC>MOL_PROPERTY
VdW12
SciTegic.value.DoubleValue
9.004

@<SCITEGIC>MOL_PROPERTY
Bond
SciTegic.value.DoubleValue
0.182

@<SCITEGIC>MOL_PROPERTY
Angle
SciTegic.value.DoubleValue
2.988

@<SCITEGIC>MOL_PROPERTY
Pdih
SciTegic.value.DoubleValue
6.930

@<SCITEGIC>MOL_PROPERTY
Idih
SciTegic.value.DoubleValue
0.001

@<SCITEGIC>MOL_PROPERTY
Tether
SciTegic.value.DoubleValue
0.000

@<TRIPOS>MOLECULE
guest-s21_confgen4.mol2 : confsearch ligand conformer 414
          22          21           1
SMALL
USER_CHARGES
 
@<TRIPOS>ATOM
       1    C1      21.224968   18.342129   24.708556 C.2        1 MOL1         0.6145
       2    O1      22.318496   18.818927   24.475413 O.co2      1 MOL1        -0.6735
       3    O2      20.997317   17.148391   24.693705 O.co2      1 MOL1        -0.6735
       4    C2      20.093142   19.285902   25.110700 C.3        1 MOL1        -0.1985
       5    H1      20.403400   19.755856   26.051133 H          1 MOL1         0.0740
       6    H2      19.198105   18.693594   25.336360 H          1 MOL1         0.0740
       7    C3      19.756758   20.397393   24.077011 C.3        1 MOL1        -0.1882
       8    H3      19.223395   21.200026   24.604009 H          1 MOL1         0.0742
       9    H4      20.683857   20.849281   23.697725 H          1 MOL1         0.0742
      10    C4      18.867717   19.937626   22.895007 C.3        1 MOL1        -0.1880
      11    H5      18.570649   20.828110   22.324250 H          1 MOL1         0.0742
      12    H6      17.939476   19.494720   23.281054 H          1 MOL1         0.0742
      13    C5      19.559031   18.941698   21.936508 C.3        1 MOL1        -0.1880
      14    H7      20.535895   19.341036   21.631035 H          1 MOL1         0.0742
      15    H8      19.747513   17.993680   22.455930 H          1 MOL1         0.0742
      16    C6      18.699488   18.664232   20.685051 C.3        1 MOL1        -0.1856
      17    H9      18.509669   19.604394   20.148937 H          1 MOL1         0.0742
      18    H10     17.721370   18.266405   20.989078 H          1 MOL1         0.0742
      19    C7      19.386868   17.663403   19.734647 C.3        1 MOL1        -0.2871
      20    H11     20.354764   18.050603   19.390232 H          1 MOL1         0.0754
      21    H12     18.762349   17.476694   18.851391 H          1 MOL1         0.0754
      22    H13     19.561259   16.702430   20.236266 H          1 MOL1         0.0754
@<TRIPOS>BOND
    1     1     2    1
    2     1     3    2
    3     1     4    1
    4     4     5    1
    5     4     6    1
    6     4     7    1
    7     7     8    1
    8     7     9    1
    9     7    10    1
   10    10    11    1
   11    10    12    1
   12    10    13    1
   13    13    14    1
   14    13    15    1
   15    13    16    1
   16    16    17    1
   17    16    18    1
   18    16    19    1
   19    19    20    1
   20    19    21    1
   21    19    22    1
@<TRIPOS>SUBSTRUCTURE
       1 MOL1            1 RESIDUE      1      MOL     
@<SCITEGIC>MOL_PROPERTY
VConf Rank
SciTegic.value.IntegerValue
414

@<SCITEGIC>MOL_PROPERTY
Conf_Id
SciTegic.value.IntegerValue
8

@<SCITEGIC>MOL_PROPERTY
Delta U+W
SciTegic.value.DoubleValue
1.886

@<SCITEGIC>MOL_PROPERTY
U+W
SciTegic.value.DoubleValue
-51.274

@<SCITEGIC>MOL_PROPERTY
Grad RMS
SciTegic.value.DoubleValue
0.000000

@<SCITEGIC>MOL_PROPERTY
U
SciTegic.value.DoubleValue
11.237

@<SCITEGIC>MOL_PROPERTY
W
SciTegic.value.DoubleValue
-62.510

@<SCITEGIC>MOL_PROPERTY
W(PB)
SciTegic.value.DoubleValue
-64.777

@<SCITEGIC>MOL_PROPERTY
W(SA)
SciTegic.value.DoubleValue
2.267

@<SCITEGIC>MOL_PROPERTY
Valence
SciTegic.value.DoubleValue
9.029

@<SCITEGIC>MOL_PROPERTY
Coulomb
SciTegic.value.DoubleValue
1.667

@<SCITEGIC>MOL_PROPERTY
VdW
SciTegic.value.DoubleValue
0.540

@<SCITEGIC>MOL_PROPERTY
VdW6
SciTegic.value.DoubleValue
-8.825

@<SCITEGIC>MOL_PROPERTY
VdW12
SciTegic.value.DoubleValue
9.365

@<SCITEGIC>MOL_PROPERTY
Bond
SciTegic.value.DoubleValue
0.186

@<SCITEGIC>MOL_PROPERTY
Angle
SciTegic.value.DoubleValue
3.195

@<SCITEGIC>MOL_PROPERTY
Pdih
SciTegic.value.DoubleValue
5.642

@<SCITEGIC>MOL_PROPERTY
Idih
SciTegic.value.DoubleValue
0.007

@<SCITEGIC>MOL_PROPERTY
Tether
SciTegic.value.DoubleValue
0.000

@<TRIPOS>MOLECULE
guest-s21_confgen4.mol2 : confsearch ligand conformer 415
          22          21           1
SMALL
USER_CHARGES
 
@<TRIPOS>ATOM
       1    C1      16.834726   19.649022   21.477095 C.2        1 MOL1         0.6145
       2    O1      16.370283   18.961640   22.365105 O.co2      1 MOL1        -0.6735
       3    O2      16.454702   19.603584   20.323481 O.co2      1 MOL1        -0.6735
       4    C2      17.934351   20.645620   21.833159 C.3        1 MOL1        -0.1985
       5    H1      17.962554   20.763657   22.922186 H          1 MOL1         0.0740
       6    H2      17.636444   21.618342   21.424766 H          1 MOL1         0.0740
       7    C3      19.337362   20.267210   21.284057 C.3        1 MOL1        -0.1882
       8    H3      19.287728   20.236408   20.186827 H          1 MOL1         0.0742
       9    H4      20.050244   21.063568   21.536928 H          1 MOL1         0.0742
      10    C4      19.885564   18.911571   21.794400 C.3        1 MOL1        -0.1880
      11    H5      20.828051   18.708939   21.270327 H          1 MOL1         0.0742
      12    H6      19.195770   18.103528   21.514803 H          1 MOL1         0.0742
      13    C5      20.128275   18.881153   23.323324 C.3        1 MOL1        -0.1880
      14    H7      20.802139   19.699929   23.609690 H          1 MOL1         0.0742
      15    H8      19.178710   19.059148   23.844455 H          1 MOL1         0.0742
      16    C6      20.703156   17.536712   23.827298 C.3        1 MOL1        -0.1856
      17    H9      20.038585   16.714218   23.528589 H          1 MOL1         0.0742
      18    H10     20.708597   17.547112   24.925951 H          1 MOL1         0.0742
      19    C7      22.137344   17.255708   23.328344 C.3        1 MOL1        -0.2871
      20    H11     22.164210   17.114837   22.240786 H          1 MOL1         0.0754
      21    H12     22.531648   16.341497   23.790555 H          1 MOL1         0.0754
      22    H13     22.812058   18.082428   23.586014 H          1 MOL1         0.0754
@<TRIPOS>BOND
    1     1     2    1
    2     1     3    2
    3     1     4    1
    4     4     5    1
    5     4     6    1
    6     4     7    1
    7     7     8    1
    8     7     9    1
    9     7    10    1
   10    10    11    1
   11    10    12    1
   12    10    13    1
   13    13    14    1
   14    13    15    1
   15    13    16    1
   16    16    17    1
   17    16    18    1
   18    16    19    1
   19    19    20    1
   20    19    21    1
   21    19    22    1
@<TRIPOS>SUBSTRUCTURE
       1 MOL1            1 RESIDUE      1      MOL     
@<SCITEGIC>MOL_PROPERTY
VConf Rank
SciTegic.value.IntegerValue
415

@<SCITEGIC>MOL_PROPERTY
Conf_Id
SciTegic.value.IntegerValue
93

@<SCITEGIC>MOL_PROPERTY
Delta U+W
SciTegic.value.DoubleValue
1.836

@<SCITEGIC>MOL_PROPERTY
U+W
SciTegic.value.DoubleValue
-51.323

@<SCITEGIC>MOL_PROPERTY
Grad RMS
SciTegic.value.DoubleValue
0.000000

@<SCITEGIC>MOL_PROPERTY
U
SciTegic.value.DoubleValue
10.427

@<SCITEGIC>MOL_PROPERTY
W
SciTegic.value.DoubleValue
-61.751

@<SCITEGIC>MOL_PROPERTY
W(PB)
SciTegic.value.DoubleValue
-63.980

@<SCITEGIC>MOL_PROPERTY
W(SA)
SciTegic.value.DoubleValue
2.230

@<SCITEGIC>MOL_PROPERTY
Valence
SciTegic.value.DoubleValue
8.446

@<SCITEGIC>MOL_PROPERTY
Coulomb
SciTegic.value.DoubleValue
1.306

@<SCITEGIC>MOL_PROPERTY
VdW
SciTegic.value.DoubleValue
0.676

@<SCITEGIC>MOL_PROPERTY
VdW6
SciTegic.value.DoubleValue
-8.928

@<SCITEGIC>MOL_PROPERTY
VdW12
SciTegic.value.DoubleValue
9.604

@<SCITEGIC>MOL_PROPERTY
Bond
SciTegic.value.DoubleValue
0.209

@<SCITEGIC>MOL_PROPERTY
Angle
SciTegic.value.DoubleValue
3.066

@<SCITEGIC>MOL_PROPERTY
Pdih
SciTegic.value.DoubleValue
5.170

@<SCITEGIC>MOL_PROPERTY
Idih
SciTegic.value.DoubleValue
0.001

@<SCITEGIC>MOL_PROPERTY
Tether
SciTegic.value.DoubleValue
0.000

@<TRIPOS>MOLECULE
guest-s21_confgen4.mol2 : confsearch ligand conformer 416
          22          21           1
SMALL
USER_CHARGES
 
@<TRIPOS>ATOM
       1    C1      18.079191   21.474467   23.600731 C.2        1 MOL1         0.6145
       2    O1      18.510478   22.329985   24.348653 O.co2      1 MOL1        -0.6735
       3    O2      17.193921   20.699738   23.905458 O.co2      1 MOL1        -0.6735
       4    C2      18.661873   21.390166   22.192705 C.3        1 MOL1        -0.1985
       5    H1      18.640000   22.401607   21.770530 H          1 MOL1         0.0740
       6    H2      17.994350   20.782105   21.571913 H          1 MOL1         0.0740
       7    C3      20.114770   20.843161   22.137681 C.3        1 MOL1        -0.1882
       8    H3      20.471358   20.871052   21.099221 H          1 MOL1         0.0742
       9    H4      20.766641   21.522096   22.704636 H          1 MOL1         0.0742
      10    C4      20.285549   19.408952   22.696796 C.3        1 MOL1        -0.1880
      11    H5      19.964404   19.379511   23.746998 H          1 MOL1         0.0742
      12    H6      21.356494   19.170071   22.693980 H          1 MOL1         0.0742
      13    C5      19.515327   18.336433   21.888153 C.3        1 MOL1        -0.1880
      14    H7      18.441920   18.564566   21.914380 H          1 MOL1         0.0742
      15    H8      19.819271   18.375912   20.833377 H          1 MOL1         0.0742
      16    C6      19.710327   16.901094   22.430161 C.3        1 MOL1        -0.1856
      17    H9      19.023976   16.228511   21.897498 H          1 MOL1         0.0742
      18    H10     19.421653   16.862611   23.489673 H          1 MOL1         0.0742
      19    C7      21.151149   16.371194   22.262693 C.3        1 MOL1        -0.2871
      20    H11     21.861944   16.938570   22.876050 H          1 MOL1         0.0754
      21    H12     21.473246   16.432998   21.215061 H          1 MOL1         0.0754
      22    H13     21.211341   15.320009   22.572989 H          1 MOL1         0.0754
@<TRIPOS>BOND
    1     1     2    1
    2     1     3    2
    3     1     4    1
    4     4     5    1
    5     4     6    1
    6     4     7    1
    7     7     8    1
    8     7     9    1
    9     7    10    1
   10    10    11    1
   11    10    12    1
   12    10    13    1
   13    13    14    1
   14    13    15    1
   15    13    16    1
   16    16    17    1
   17    16    18    1
   18    16    19    1
   19    19    20    1
   20    19    21    1
   21    19    22    1
@<TRIPOS>SUBSTRUCTURE
       1 MOL1            1 RESIDUE      1      MOL     
@<SCITEGIC>MOL_PROPERTY
VConf Rank
SciTegic.value.IntegerValue
416

@<SCITEGIC>MOL_PROPERTY
Conf_Id
SciTegic.value.IntegerValue
70

@<SCITEGIC>MOL_PROPERTY
Delta U+W
SciTegic.value.DoubleValue
1.803

@<SCITEGIC>MOL_PROPERTY
U+W
SciTegic.value.DoubleValue
-51.356

@<SCITEGIC>MOL_PROPERTY
Grad RMS
SciTegic.value.DoubleValue
0.000000

@<SCITEGIC>MOL_PROPERTY
U
SciTegic.value.DoubleValue
10.428

@<SCITEGIC>MOL_PROPERTY
W
SciTegic.value.DoubleValue
-61.784

@<SCITEGIC>MOL_PROPERTY
W(PB)
SciTegic.value.DoubleValue
-64.014

@<SCITEGIC>MOL_PROPERTY
W(SA)
SciTegic.value.DoubleValue
2.230

@<SCITEGIC>MOL_PROPERTY
Valence
SciTegic.value.DoubleValue
8.445

@<SCITEGIC>MOL_PROPERTY
Coulomb
SciTegic.value.DoubleValue
1.306

@<SCITEGIC>MOL_PROPERTY
VdW
SciTegic.value.DoubleValue
0.676

@<SCITEGIC>MOL_PROPERTY
VdW6
SciTegic.value.DoubleValue
-8.929

@<SCITEGIC>MOL_PROPERTY
VdW12
SciTegic.value.DoubleValue
9.605

@<SCITEGIC>MOL_PROPERTY
Bond
SciTegic.value.DoubleValue
0.209

@<SCITEGIC>MOL_PROPERTY
Angle
SciTegic.value.DoubleValue
3.066

@<SCITEGIC>MOL_PROPERTY
Pdih
SciTegic.value.DoubleValue
5.170

@<SCITEGIC>MOL_PROPERTY
Idih
SciTegic.value.DoubleValue
0.001

@<SCITEGIC>MOL_PROPERTY
Tether
SciTegic.value.DoubleValue
0.000

@<TRIPOS>MOLECULE
guest-s21_confgen4.mol2 : confsearch ligand conformer 417
          22          21           1
SMALL
USER_CHARGES
 
@<TRIPOS>ATOM
       1    C1      20.034857   16.840793   24.877172 C.2        1 MOL1         0.6145
       2    O1      21.232236   16.824944   25.084408 O.co2      1 MOL1        -0.6735
       3    O2      19.385585   15.848897   24.609841 O.co2      1 MOL1        -0.6735
       4    C2      19.305098   18.177238   24.979463 C.3        1 MOL1        -0.1985
       5    H1      19.661974   18.677658   25.887350 H          1 MOL1         0.0740
       6    H2      18.235645   17.982001   25.124350 H          1 MOL1         0.0740
       7    C3      19.519922   19.107042   23.757049 C.3        1 MOL1        -0.1882
       8    H3      19.072650   20.087010   23.971234 H          1 MOL1         0.0742
       9    H4      20.596898   19.271958   23.620828 H          1 MOL1         0.0742
      10    C4      18.898155   18.533957   22.461077 C.3        1 MOL1        -0.1880
      11    H5      17.842180   18.295027   22.647280 H          1 MOL1         0.0742
      12    H6      19.388089   17.585846   22.199630 H          1 MOL1         0.0742
      13    C5      18.977729   19.503878   21.258393 C.3        1 MOL1        -0.1880
      14    H7      18.408938   19.070965   20.424155 H          1 MOL1         0.0742
      15    H8      18.481605   20.449964   21.514612 H          1 MOL1         0.0742
      16    C6      20.422915   19.783868   20.788062 C.3        1 MOL1        -0.1856
      17    H9      20.936071   18.834314   20.582423 H          1 MOL1         0.0742
      18    H10     20.988384   20.288187   21.582584 H          1 MOL1         0.0742
      19    C7      20.445045   20.662943   19.521385 C.3        1 MOL1        -0.2871
      20    H11     19.920127   20.171020   18.692034 H          1 MOL1         0.0754
      21    H12     21.477590   20.855211   19.202099 H          1 MOL1         0.0754
      22    H13     19.961756   21.631078   19.707177 H          1 MOL1         0.0754
@<TRIPOS>BOND
    1     1     2    1
    2     1     3    2
    3     1     4    1
    4     4     5    1
    5     4     6    1
    6     4     7    1
    7     7     8    1
    8     7     9    1
    9     7    10    1
   10    10    11    1
   11    10    12    1
   12    10    13    1
   13    13    14    1
   14    13    15    1
   15    13    16    1
   16    16    17    1
   17    16    18    1
   18    16    19    1
   19    19    20    1
   20    19    21    1
   21    19    22    1
@<TRIPOS>SUBSTRUCTURE
       1 MOL1            1 RESIDUE      1      MOL     
@<SCITEGIC>MOL_PROPERTY
VConf Rank
SciTegic.value.IntegerValue
417

@<SCITEGIC>MOL_PROPERTY
Conf_Id
SciTegic.value.IntegerValue
85

@<SCITEGIC>MOL_PROPERTY
Delta U+W
SciTegic.value.DoubleValue
0.707

@<SCITEGIC>MOL_PROPERTY
U+W
SciTegic.value.DoubleValue
-52.452

@<SCITEGIC>MOL_PROPERTY
Grad RMS
SciTegic.value.DoubleValue
0.000000

@<SCITEGIC>MOL_PROPERTY
U
SciTegic.value.DoubleValue
8.925

@<SCITEGIC>MOL_PROPERTY
W
SciTegic.value.DoubleValue
-61.378

@<SCITEGIC>MOL_PROPERTY
W(PB)
SciTegic.value.DoubleValue
-63.661

@<SCITEGIC>MOL_PROPERTY
W(SA)
SciTegic.value.DoubleValue
2.283

@<SCITEGIC>MOL_PROPERTY
Valence
SciTegic.value.DoubleValue
7.881

@<SCITEGIC>MOL_PROPERTY
Coulomb
SciTegic.value.DoubleValue
0.349

@<SCITEGIC>MOL_PROPERTY
VdW
SciTegic.value.DoubleValue
0.695

@<SCITEGIC>MOL_PROPERTY
VdW6
SciTegic.value.DoubleValue
-8.049

@<SCITEGIC>MOL_PROPERTY
VdW12
SciTegic.value.DoubleValue
8.743

@<SCITEGIC>MOL_PROPERTY
Bond
SciTegic.value.DoubleValue
0.156

@<SCITEGIC>MOL_PROPERTY
Angle
SciTegic.value.DoubleValue
2.660

@<SCITEGIC>MOL_PROPERTY
Pdih
SciTegic.value.DoubleValue
5.064

@<SCITEGIC>MOL_PROPERTY
Idih
SciTegic.value.DoubleValue
0.001

@<SCITEGIC>MOL_PROPERTY
Tether
SciTegic.value.DoubleValue
0.000

@<TRIPOS>MOLECULE
guest-s21_confgen4.mol2 : confsearch ligand conformer 418
          22          21           1
SMALL
USER_CHARGES
 
@<TRIPOS>ATOM
       1    C1      20.398921   15.671666   23.131847 C.2        1 MOL1         0.6145
       2    O1      19.870455   14.914953   22.341245 O.co2      1 MOL1        -0.6735
       3    O2      21.548808   15.555336   23.507615 O.co2      1 MOL1        -0.6735
       4    C2      19.567970   16.817489   23.702815 C.3        1 MOL1        -0.1985
       5    H1      19.735391   16.834099   24.786182 H          1 MOL1         0.0740
       6    H2      18.505851   16.591306   23.549188 H          1 MOL1         0.0740
       7    C3      19.911276   18.207137   23.105567 C.3        1 MOL1        -0.1882
       8    H3      19.380606   18.972860   23.685190 H          1 MOL1         0.0742
       9    H4      20.986425   18.400094   23.224309 H          1 MOL1         0.0742
      10    C4      19.516044   18.328641   21.615563 C.3        1 MOL1        -0.1880
      11    H5      18.427453   18.219462   21.516828 H          1 MOL1         0.0742
      12    H6      19.959704   17.494227   21.055419 H          1 MOL1         0.0742
      13    C5      19.964301   19.651096   20.944219 C.3        1 MOL1        -0.1880
      14    H7      21.060292   19.726047   20.954931 H          1 MOL1         0.0742
      15    H8      19.679832   19.595771   19.884557 H          1 MOL1         0.0742
      16    C6      19.332775   20.931294   21.546023 C.3        1 MOL1        -0.1856
      17    H9      18.353677   20.701667   21.988572 H          1 MOL1         0.0742
      18    H10     19.140141   21.643732   20.732007 H          1 MOL1         0.0742
      19    C7      20.240407   21.627785   22.584355 C.3        1 MOL1        -0.2871
      20    H11     20.461894   20.975191   23.436393 H          1 MOL1         0.0754
      21    H12     19.755361   22.532734   22.972448 H          1 MOL1         0.0754
      22    H13     21.194136   21.926760   22.130373 H          1 MOL1         0.0754
@<TRIPOS>BOND
    1     1     2    1
    2     1     3    2
    3     1     4    1
    4     4     5    1
    5     4     6    1
    6     4     7    1
    7     7     8    1
    8     7     9    1
    9     7    10    1
   10    10    11    1
   11    10    12    1
   12    10    13    1
   13    13    14    1
   14    13    15    1
   15    13    16    1
   16    16    17    1
   17    16    18    1
   18    16    19    1
   19    19    20    1
   20    19    21    1
   21    19    22    1
@<TRIPOS>SUBSTRUCTURE
       1 MOL1            1 RESIDUE      1      MOL     
@<SCITEGIC>MOL_PROPERTY
VConf Rank
SciTegic.value.IntegerValue
418

@<SCITEGIC>MOL_PROPERTY
Conf_Id
SciTegic.value.IntegerValue
82

@<SCITEGIC>MOL_PROPERTY
Delta U+W
SciTegic.value.DoubleValue
3.438

@<SCITEGIC>MOL_PROPERTY
U+W
SciTegic.value.DoubleValue
-49.721

@<SCITEGIC>MOL_PROPERTY
Grad RMS
SciTegic.value.DoubleValue
0.000000

@<SCITEGIC>MOL_PROPERTY
U
SciTegic.value.DoubleValue
11.773

@<SCITEGIC>MOL_PROPERTY
W
SciTegic.value.DoubleValue
-61.495

@<SCITEGIC>MOL_PROPERTY
W(PB)
SciTegic.value.DoubleValue
-63.749

@<SCITEGIC>MOL_PROPERTY
W(SA)
SciTegic.value.DoubleValue
2.254

@<SCITEGIC>MOL_PROPERTY
Valence
SciTegic.value.DoubleValue
10.419

@<SCITEGIC>MOL_PROPERTY
Coulomb
SciTegic.value.DoubleValue
0.565

@<SCITEGIC>MOL_PROPERTY
VdW
SciTegic.value.DoubleValue
0.789

@<SCITEGIC>MOL_PROPERTY
VdW6
SciTegic.value.DoubleValue
-8.847

@<SCITEGIC>MOL_PROPERTY
VdW12
SciTegic.value.DoubleValue
9.636

@<SCITEGIC>MOL_PROPERTY
Bond
SciTegic.value.DoubleValue
0.200

@<SCITEGIC>MOL_PROPERTY
Angle
SciTegic.value.DoubleValue
3.187

@<SCITEGIC>MOL_PROPERTY
Pdih
SciTegic.value.DoubleValue
7.032

@<SCITEGIC>MOL_PROPERTY
Idih
SciTegic.value.DoubleValue
0.001

@<SCITEGIC>MOL_PROPERTY
Tether
SciTegic.value.DoubleValue
0.000

@<TRIPOS>MOLECULE
guest-s21_confgen4.mol2 : confsearch ligand conformer 419
          22          21           1
SMALL
USER_CHARGES
 
@<TRIPOS>ATOM
       1    C1      20.833067   21.216507   24.607443 C.2        1 MOL1         0.6145
       2    O1      20.728910   20.736867   25.719230 O.co2      1 MOL1        -0.6735
       3    O2      21.795836   21.861428   24.241255 O.co2      1 MOL1        -0.6735
       4    C2      19.680714   21.016537   23.626885 C.3        1 MOL1        -0.1985
       5    H1      19.762176   21.767474   22.831703 H          1 MOL1         0.0740
       6    H2      18.750915   21.227226   24.168249 H          1 MOL1         0.0740
       7    C3      19.610751   19.593375   23.014183 C.3        1 MOL1        -0.1882
       8    H3      19.577070   18.849320   23.821974 H          1 MOL1         0.0742
       9    H4      18.671210   19.504062   22.454546 H          1 MOL1         0.0742
      10    C4      20.798326   19.292618   22.070631 C.3        1 MOL1        -0.1880
      11    H5      21.739717   19.490626   22.601118 H          1 MOL1         0.0742
      12    H6      20.773772   19.987671   21.220338 H          1 MOL1         0.0742
      13    C5      20.839786   17.835937   21.544429 C.3        1 MOL1        -0.1880
      14    H7      21.749427   17.730447   20.937558 H          1 MOL1         0.0742
      15    H8      20.958230   17.136046   22.382910 H          1 MOL1         0.0742
      16    C6      19.627897   17.426567   20.670565 C.3        1 MOL1        -0.1856
      17    H9      19.981263   16.763581   19.868767 H          1 MOL1         0.0742
      18    H10     19.202166   18.308263   20.171990 H          1 MOL1         0.0742
      19    C7      18.532657   16.676710   21.461256 C.3        1 MOL1        -0.2871
      20    H11     18.932538   15.754522   21.902562 H          1 MOL1         0.0754
      21    H12     17.702871   16.399065   20.798544 H          1 MOL1         0.0754
      22    H13     18.122669   17.289034   22.272350 H          1 MOL1         0.0754
@<TRIPOS>BOND
    1     1     2    1
    2     1     3    2
    3     1     4    1
    4     4     5    1
    5     4     6    1
    6     4     7    1
    7     7     8    1
    8     7     9    1
    9     7    10    1
   10    10    11    1
   11    10    12    1
   12    10    13    1
   13    13    14    1
   14    13    15    1
   15    13    16    1
   16    16    17    1
   17    16    18    1
   18    16    19    1
   19    19    20    1
   20    19    21    1
   21    19    22    1
@<TRIPOS>SUBSTRUCTURE
       1 MOL1            1 RESIDUE      1      MOL     
@<SCITEGIC>MOL_PROPERTY
VConf Rank
SciTegic.value.IntegerValue
419

@<SCITEGIC>MOL_PROPERTY
Conf_Id
SciTegic.value.IntegerValue
94

@<SCITEGIC>MOL_PROPERTY
Delta U+W
SciTegic.value.DoubleValue
3.471

@<SCITEGIC>MOL_PROPERTY
U+W
SciTegic.value.DoubleValue
-49.688

@<SCITEGIC>MOL_PROPERTY
Grad RMS
SciTegic.value.DoubleValue
0.000000

@<SCITEGIC>MOL_PROPERTY
U
SciTegic.value.DoubleValue
11.773

@<SCITEGIC>MOL_PROPERTY
W
SciTegic.value.DoubleValue
-61.461

@<SCITEGIC>MOL_PROPERTY
W(PB)
SciTegic.value.DoubleValue
-63.710

@<SCITEGIC>MOL_PROPERTY
W(SA)
SciTegic.value.DoubleValue
2.248

@<SCITEGIC>MOL_PROPERTY
Valence
SciTegic.value.DoubleValue
10.419

@<SCITEGIC>MOL_PROPERTY
Coulomb
SciTegic.value.DoubleValue
0.566

@<SCITEGIC>MOL_PROPERTY
VdW
SciTegic.value.DoubleValue
0.789

@<SCITEGIC>MOL_PROPERTY
VdW6
SciTegic.value.DoubleValue
-8.847

@<SCITEGIC>MOL_PROPERTY
VdW12
SciTegic.value.DoubleValue
9.636

@<SCITEGIC>MOL_PROPERTY
Bond
SciTegic.value.DoubleValue
0.200

@<SCITEGIC>MOL_PROPERTY
Angle
SciTegic.value.DoubleValue
3.187

@<SCITEGIC>MOL_PROPERTY
Pdih
SciTegic.value.DoubleValue
7.032

@<SCITEGIC>MOL_PROPERTY
Idih
SciTegic.value.DoubleValue
0.001

@<SCITEGIC>MOL_PROPERTY
Tether
SciTegic.value.DoubleValue
0.000

@<TRIPOS>MOLECULE
guest-s21_confgen4.mol2 : confsearch ligand conformer 420
          22          21           1
SMALL
USER_CHARGES
 
@<TRIPOS>ATOM
       1    C1      16.693794   17.947087   22.343546 C.2        1 MOL1         0.6145
       2    O1      15.849894   17.864398   23.214002 O.co2      1 MOL1        -0.6735
       3    O2      16.756478   17.191880   21.393647 O.co2      1 MOL1        -0.6735
       4    C2      17.742832   19.047008   22.460287 C.3        1 MOL1        -0.1985
       5    H1      17.277048   19.912416   22.946443 H          1 MOL1         0.0740
       6    H2      18.019599   19.353321   21.445100 H          1 MOL1         0.0740
       7    C3      18.997040   18.598365   23.254099 C.3        1 MOL1        -0.1882
       8    H3      18.677485   18.220838   24.235148 H          1 MOL1         0.0742
       9    H4      19.471986   17.750654   22.742594 H          1 MOL1         0.0742
      10    C4      20.028347   19.733522   23.473734 C.3        1 MOL1        -0.1880
      11    H5      20.855117   19.348710   24.085162 H          1 MOL1         0.0742
      12    H6      19.560259   20.526534   24.072543 H          1 MOL1         0.0742
      13    C5      20.601210   20.365204   22.177597 C.3        1 MOL1        -0.1880
      14    H7      19.799226   20.893017   21.645163 H          1 MOL1         0.0742
      15    H8      21.329579   21.138269   22.457586 H          1 MOL1         0.0742
      16    C6      21.279784   19.370519   21.203909 C.3        1 MOL1        -0.1856
      17    H9      21.619890   19.924302   20.318155 H          1 MOL1         0.0742
      18    H10     20.547236   18.637277   20.840958 H          1 MOL1         0.0742
      19    C7      22.487835   18.636895   21.825368 C.3        1 MOL1        -0.2871
      20    H11     23.226279   19.352219   22.210031 H          1 MOL1         0.0754
      21    H12     22.983867   18.008692   21.074329 H          1 MOL1         0.0754
      22    H13     22.176375   17.985240   22.651379 H          1 MOL1         0.0754
@<TRIPOS>BOND
    1     1     2    1
    2     1     3    2
    3     1     4    1
    4     4     5    1
    5     4     6    1
    6     4     7    1
    7     7     8    1
    8     7     9    1
    9     7    10    1
   10    10    11    1
   11    10    12    1
   12    10    13    1
   13    13    14    1
   14    13    15    1
   15    13    16    1
   16    16    17    1
   17    16    18    1
   18    16    19    1
   19    19    20    1
   20    19    21    1
   21    19    22    1
@<TRIPOS>SUBSTRUCTURE
       1 MOL1            1 RESIDUE      1      MOL     
@<SCITEGIC>MOL_PROPERTY
VConf Rank
SciTegic.value.IntegerValue
420

@<SCITEGIC>MOL_PROPERTY
Conf_Id
SciTegic.value.IntegerValue
56

@<SCITEGIC>MOL_PROPERTY
Delta U+W
SciTegic.value.DoubleValue
0.853

@<SCITEGIC>MOL_PROPERTY
U+W
SciTegic.value.DoubleValue
-52.307

@<SCITEGIC>MOL_PROPERTY
Grad RMS
SciTegic.value.DoubleValue
0.000000

@<SCITEGIC>MOL_PROPERTY
U
SciTegic.value.DoubleValue
8.874

@<SCITEGIC>MOL_PROPERTY
W
SciTegic.value.DoubleValue
-61.181

@<SCITEGIC>MOL_PROPERTY
W(PB)
SciTegic.value.DoubleValue
-63.413

@<SCITEGIC>MOL_PROPERTY
W(SA)
SciTegic.value.DoubleValue
2.232

@<SCITEGIC>MOL_PROPERTY
Valence
SciTegic.value.DoubleValue
8.479

@<SCITEGIC>MOL_PROPERTY
Coulomb
SciTegic.value.DoubleValue
-0.357

@<SCITEGIC>MOL_PROPERTY
VdW
SciTegic.value.DoubleValue
0.753

@<SCITEGIC>MOL_PROPERTY
VdW6
SciTegic.value.DoubleValue
-9.081

@<SCITEGIC>MOL_PROPERTY
VdW12
SciTegic.value.DoubleValue
9.833

@<SCITEGIC>MOL_PROPERTY
Bond
SciTegic.value.DoubleValue
0.221

@<SCITEGIC>MOL_PROPERTY
Angle
SciTegic.value.DoubleValue
3.208

@<SCITEGIC>MOL_PROPERTY
Pdih
SciTegic.value.DoubleValue
5.050

@<SCITEGIC>MOL_PROPERTY
Idih
SciTegic.value.DoubleValue
0.000

@<SCITEGIC>MOL_PROPERTY
Tether
SciTegic.value.DoubleValue
0.000

@<TRIPOS>MOLECULE
guest-s21_confgen4.mol2 : confsearch ligand conformer 421
          22          21           1
SMALL
USER_CHARGES
 
@<TRIPOS>ATOM
       1    C1      19.903964   16.910904   18.653951 C.2        1 MOL1         0.6145
       2    O1      19.259155   17.760678   18.070421 O.co2      1 MOL1        -0.6735
       3    O2      20.304344   15.897099   18.117465 O.co2      1 MOL1        -0.6735
       4    C2      20.242838   17.098162   20.133689 C.3        1 MOL1        -0.1985
       5    H1      21.334432   17.056906   20.226908 H          1 MOL1         0.0740
       6    H2      19.841705   16.232105   20.673138 H          1 MOL1         0.0740
       7    C3      19.710932   18.407606   20.774659 C.3        1 MOL1        -0.1882
       8    H3      20.111581   19.271069   20.225658 H          1 MOL1         0.0742
       9    H4      18.617491   18.445444   20.672465 H          1 MOL1         0.0742
      10    C4      20.097378   18.515257   22.265827 C.3        1 MOL1        -0.1880
      11    H5      21.190884   18.477196   22.365456 H          1 MOL1         0.0742
      12    H6      19.695894   17.650942   22.812545 H          1 MOL1         0.0742
      13    C5      19.567232   19.818415   22.901462 C.3        1 MOL1        -0.1880
      14    H7      19.968414   20.683046   22.355025 H          1 MOL1         0.0742
      15    H8      18.473719   19.856907   22.802099 H          1 MOL1         0.0742
      16    C6      19.953104   19.926680   24.391591 C.3        1 MOL1        -0.1856
      17    H9      21.046505   19.890599   24.494783 H          1 MOL1         0.0742
      18    H10     19.551788   19.064354   24.941877 H          1 MOL1         0.0742
      19    C7      19.421792   21.229308   25.022626 C.3        1 MOL1        -0.2871
      20    H11     19.832535   22.109610   24.510995 H          1 MOL1         0.0754
      21    H12     19.705091   21.289849   26.081479 H          1 MOL1         0.0754
      22    H13     18.326629   21.277142   24.961502 H          1 MOL1         0.0754
@<TRIPOS>BOND
    1     1     2    1
    2     1     3    2
    3     1     4    1
    4     4     5    1
    5     4     6    1
    6     4     7    1
    7     7     8    1
    8     7     9    1
    9     7    10    1
   10    10    11    1
   11    10    12    1
   12    10    13    1
   13    13    14    1
   14    13    15    1
   15    13    16    1
   16    16    17    1
   17    16    18    1
   18    16    19    1
   19    19    20    1
   20    19    21    1
   21    19    22    1
@<TRIPOS>SUBSTRUCTURE
       1 MOL1            1 RESIDUE      1      MOL     
@<SCITEGIC>MOL_PROPERTY
VConf Rank
SciTegic.value.IntegerValue
421

@<SCITEGIC>MOL_PROPERTY
Conf_Id
SciTegic.value.IntegerValue
0

@<SCITEGIC>MOL_PROPERTY
Delta U+W
SciTegic.value.DoubleValue
0.000

@<SCITEGIC>MOL_PROPERTY
U+W
SciTegic.value.DoubleValue
-53.159

@<SCITEGIC>MOL_PROPERTY
Grad RMS
SciTegic.value.DoubleValue
0.000000

@<SCITEGIC>MOL_PROPERTY
U
SciTegic.value.DoubleValue
6.763

@<SCITEGIC>MOL_PROPERTY
W
SciTegic.value.DoubleValue
-59.922

@<SCITEGIC>MOL_PROPERTY
W(PB)
SciTegic.value.DoubleValue
-62.256

@<SCITEGIC>MOL_PROPERTY
W(SA)
SciTegic.value.DoubleValue
2.334

@<SCITEGIC>MOL_PROPERTY
Valence
SciTegic.value.DoubleValue
7.600

@<SCITEGIC>MOL_PROPERTY
Coulomb
SciTegic.value.DoubleValue
-2.139

@<SCITEGIC>MOL_PROPERTY
VdW
SciTegic.value.DoubleValue
1.302

@<SCITEGIC>MOL_PROPERTY
VdW6
SciTegic.value.DoubleValue
-6.786

@<SCITEGIC>MOL_PROPERTY
VdW12
SciTegic.value.DoubleValue
8.088

@<SCITEGIC>MOL_PROPERTY
Bond
SciTegic.value.DoubleValue
0.134

@<SCITEGIC>MOL_PROPERTY
Angle
SciTegic.value.DoubleValue
2.720

@<SCITEGIC>MOL_PROPERTY
Pdih
SciTegic.value.DoubleValue
4.746

@<SCITEGIC>MOL_PROPERTY
Idih
SciTegic.value.DoubleValue
0.000

@<SCITEGIC>MOL_PROPERTY
Tether
SciTegic.value.DoubleValue
0.000

@<TRIPOS>MOLECULE
guest-s21_confgen4.mol2 : confsearch ligand conformer 422
          22          21           1
SMALL
USER_CHARGES
 
@<TRIPOS>ATOM
       1    C1      23.715515   18.981211   21.249968 C.2        1 MOL1         0.6145
       2    O1      24.454823   18.938120   22.213294 O.co2      1 MOL1        -0.6735
       3    O2      23.987095   19.563433   20.218613 O.co2      1 MOL1        -0.6735
       4    C2      22.362802   18.285089   21.348936 C.3        1 MOL1        -0.1985
       5    H1      22.478414   17.405952   21.994238 H          1 MOL1         0.0740
       6    H2      22.093096   17.921006   20.350255 H          1 MOL1         0.0740
       7    C3      21.249202   19.209602   21.899589 C.3        1 MOL1        -0.1882
       8    H3      21.540332   19.575871   22.893904 H          1 MOL1         0.0742
       9    H4      21.155024   20.090909   21.249971 H          1 MOL1         0.0742
      10    C4      19.890461   18.481924   21.990077 C.3        1 MOL1        -0.1880
      11    H5      19.988390   17.600842   22.639137 H          1 MOL1         0.0742
      12    H6      19.603000   18.115971   20.994780 H          1 MOL1         0.0742
      13    C5      18.782366   19.405952   22.539252 C.3        1 MOL1        -0.1880
      14    H7      19.069460   19.772129   23.534550 H          1 MOL1         0.0742
      15    H8      18.684131   20.287175   21.890468 H          1 MOL1         0.0742
      16    C6      17.424075   18.679398   22.629994 C.3        1 MOL1        -0.1856
      17    H9      17.517849   17.798290   23.279866 H          1 MOL1         0.0742
      18    H10     17.132520   18.313319   21.635782 H          1 MOL1         0.0742
      19    C7      16.320214   19.605477   23.178819 C.3        1 MOL1        -0.2871
      20    H11     16.183112   20.480516   22.530037 H          1 MOL1         0.0754
      21    H12     16.571447   19.961735   24.186475 H          1 MOL1         0.0754
      22    H13     15.361950   19.073059   23.236727 H          1 MOL1         0.0754
@<TRIPOS>BOND
    1     1     2    1
    2     1     3    2
    3     1     4    1
    4     4     5    1
    5     4     6    1
    6     4     7    1
    7     7     8    1
    8     7     9    1
    9     7    10    1
   10    10    11    1
   11    10    12    1
   12    10    13    1
   13    13    14    1
   14    13    15    1
   15    13    16    1
   16    16    17    1
   17    16    18    1
   18    16    19    1
   19    19    20    1
   20    19    21    1
   21    19    22    1
@<TRIPOS>SUBSTRUCTURE
       1 MOL1            1 RESIDUE      1      MOL     
@<SCITEGIC>MOL_PROPERTY
VConf Rank
SciTegic.value.IntegerValue
422

@<SCITEGIC>MOL_PROPERTY
Conf_Id
SciTegic.value.IntegerValue
10

@<SCITEGIC>MOL_PROPERTY
Delta U+W
SciTegic.value.DoubleValue
-1.291

@<SCITEGIC>MOL_PROPERTY
U+W
SciTegic.value.DoubleValue
-54.451

@<SCITEGIC>MOL_PROPERTY
Grad RMS
SciTegic.value.DoubleValue
0.000000

@<SCITEGIC>MOL_PROPERTY
U
SciTegic.value.DoubleValue
5.779

@<SCITEGIC>MOL_PROPERTY
W
SciTegic.value.DoubleValue
-60.230

@<SCITEGIC>MOL_PROPERTY
W(PB)
SciTegic.value.DoubleValue
-62.557

@<SCITEGIC>MOL_PROPERTY
W(SA)
SciTegic.value.DoubleValue
2.328

@<SCITEGIC>MOL_PROPERTY
Valence
SciTegic.value.DoubleValue
7.101

@<SCITEGIC>MOL_PROPERTY
Coulomb
SciTegic.value.DoubleValue
-2.079

@<SCITEGIC>MOL_PROPERTY
VdW
SciTegic.value.DoubleValue
0.757

@<SCITEGIC>MOL_PROPERTY
VdW6
SciTegic.value.DoubleValue
-6.496

@<SCITEGIC>MOL_PROPERTY
VdW12
SciTegic.value.DoubleValue
7.253

@<SCITEGIC>MOL_PROPERTY
Bond
SciTegic.value.DoubleValue
0.100

@<SCITEGIC>MOL_PROPERTY
Angle
SciTegic.value.DoubleValue
2.262

@<SCITEGIC>MOL_PROPERTY
Pdih
SciTegic.value.DoubleValue
4.738

@<SCITEGIC>MOL_PROPERTY
Idih
SciTegic.value.DoubleValue
0.001

@<SCITEGIC>MOL_PROPERTY
Tether
SciTegic.value.DoubleValue
0.000

@<TRIPOS>MOLECULE
guest-s21_confgen4.mol2 : confsearch ligand conformer 423
          22          21           1
SMALL
USER_CHARGES
 
@<TRIPOS>ATOM
       1    C1      20.365228   18.930787   26.074158 C.2        1 MOL1         0.6145
       2    O1      20.842854   17.891777   26.484993 O.co2      1 MOL1        -0.6735
       3    O2      20.493333   19.999607   26.637778 O.co2      1 MOL1        -0.6735
       4    C2      19.579493   18.895172   24.768187 C.3        1 MOL1        -0.1985
       5    H1      18.792884   19.657344   24.822832 H          1 MOL1         0.0740
       6    H2      19.082060   17.920468   24.696287 H          1 MOL1         0.0740
       7    C3      20.469524   19.134087   23.523632 C.3        1 MOL1        -0.1882
       8    H3      20.970444   20.107612   23.617656 H          1 MOL1         0.0742
       9    H4      21.259253   18.370700   23.490177 H          1 MOL1         0.0742
      10    C4      19.650893   19.093128   22.215003 C.3        1 MOL1        -0.1880
      11    H5      18.863673   19.858560   22.250407 H          1 MOL1         0.0742
      12    H6      19.149405   18.119871   22.134706 H          1 MOL1         0.0742
      13    C5      20.544432   19.328469   20.975461 C.3        1 MOL1        -0.1880
      14    H7      21.092628   20.271817   21.103945 H          1 MOL1         0.0742
      15    H8      21.301587   18.535243   20.908818 H          1 MOL1         0.0742
      16    C6      19.751011   19.398535   19.649987 C.3        1 MOL1        -0.1856
      17    H9      20.438991   19.683567   18.842103 H          1 MOL1         0.0742
      18    H10     18.996748   20.195231   19.710595 H          1 MOL1         0.0742
      19    C7      19.069068   18.065065   19.274461 C.3        1 MOL1        -0.2871
      20    H11     18.595925   18.140831   18.286881 H          1 MOL1         0.0754
      21    H12     18.288039   17.796977   19.996837 H          1 MOL1         0.0754
      22    H13     19.799947   17.246799   19.237149 H          1 MOL1         0.0754
@<TRIPOS>BOND
    1     1     2    1
    2     1     3    2
    3     1     4    1
    4     4     5    1
    5     4     6    1
    6     4     7    1
    7     7     8    1
    8     7     9    1
    9     7    10    1
   10    10    11    1
   11    10    12    1
   12    10    13    1
   13    13    14    1
   14    13    15    1
   15    13    16    1
   16    16    17    1
   17    16    18    1
   18    16    19    1
   19    19    20    1
   20    19    21    1
   21    19    22    1
@<TRIPOS>SUBSTRUCTURE
       1 MOL1            1 RESIDUE      1      MOL     
@<SCITEGIC>MOL_PROPERTY
VConf Rank
SciTegic.value.IntegerValue
423

@<SCITEGIC>MOL_PROPERTY
Conf_Id
SciTegic.value.IntegerValue
37

@<SCITEGIC>MOL_PROPERTY
Delta U+W
SciTegic.value.DoubleValue
-0.345

@<SCITEGIC>MOL_PROPERTY
U+W
SciTegic.value.DoubleValue
-53.504

@<SCITEGIC>MOL_PROPERTY
Grad RMS
SciTegic.value.DoubleValue
0.000000

@<SCITEGIC>MOL_PROPERTY
U
SciTegic.value.DoubleValue
6.751

@<SCITEGIC>MOL_PROPERTY
W
SciTegic.value.DoubleValue
-60.255

@<SCITEGIC>MOL_PROPERTY
W(PB)
SciTegic.value.DoubleValue
-62.592

@<SCITEGIC>MOL_PROPERTY
W(SA)
SciTegic.value.DoubleValue
2.336

@<SCITEGIC>MOL_PROPERTY
Valence
SciTegic.value.DoubleValue
7.602

@<SCITEGIC>MOL_PROPERTY
Coulomb
SciTegic.value.DoubleValue
-1.744

@<SCITEGIC>MOL_PROPERTY
VdW
SciTegic.value.DoubleValue
0.894

@<SCITEGIC>MOL_PROPERTY
VdW6
SciTegic.value.DoubleValue
-7.110

@<SCITEGIC>MOL_PROPERTY
VdW12
SciTegic.value.DoubleValue
8.004

@<SCITEGIC>MOL_PROPERTY
Bond
SciTegic.value.DoubleValue
0.131

@<SCITEGIC>MOL_PROPERTY
Angle
SciTegic.value.DoubleValue
2.489

@<SCITEGIC>MOL_PROPERTY
Pdih
SciTegic.value.DoubleValue
4.982

@<SCITEGIC>MOL_PROPERTY
Idih
SciTegic.value.DoubleValue
0.001

@<SCITEGIC>MOL_PROPERTY
Tether
SciTegic.value.DoubleValue
0.000

@<TRIPOS>MOLECULE
guest-s21_confgen4.mol2 : confsearch ligand conformer 424
          22          21           1
SMALL
USER_CHARGES
 
@<TRIPOS>ATOM
       1    C1      17.637906   22.036397   21.087183 C.2        1 MOL1         0.6145
       2    O1      17.181810   22.660185   22.024901 O.co2      1 MOL1        -0.6735
       3    O2      17.117712   21.994638   19.989862 O.co2      1 MOL1        -0.6735
       4    C2      18.922364   21.244771   21.305608 C.3        1 MOL1        -0.1985
       5    H1      19.533867   21.783306   22.039570 H          1 MOL1         0.0740
       6    H2      19.481493   21.235388   20.362246 H          1 MOL1         0.0740
       7    C3      18.662005   19.796079   21.786917 C.3        1 MOL1        -0.1882
       8    H3      18.090931   19.822484   22.725387 H          1 MOL1         0.0742
       9    H4      18.037509   19.275234   21.047839 H          1 MOL1         0.0742
      10    C4      19.977427   19.016051   22.000396 C.3        1 MOL1        -0.1880
      11    H5      20.596280   19.548424   22.734404 H          1 MOL1         0.0742
      12    H6      20.545051   18.989384   21.060212 H          1 MOL1         0.0742
      13    C5      19.712233   17.571898   22.484503 C.3        1 MOL1        -0.1880
      14    H7      19.189227   17.595309   23.450346 H          1 MOL1         0.0742
      15    H8      19.034821   17.076092   21.775825 H          1 MOL1         0.0742
      16    C6      20.996931   16.720770   22.612738 C.3        1 MOL1        -0.1856
      17    H9      21.519533   16.689708   21.646698 H          1 MOL1         0.0742
      18    H10     20.711930   15.685282   22.844633 H          1 MOL1         0.0742
      19    C7      21.959698   17.228237   23.708077 C.3        1 MOL1        -0.2871
      20    H11     21.450351   17.296304   24.678163 H          1 MOL1         0.0754
      21    H12     22.362774   18.218071   23.460163 H          1 MOL1         0.0754
      22    H13     22.809374   16.542335   23.819933 H          1 MOL1         0.0754
@<TRIPOS>BOND
    1     1     2    1
    2     1     3    2
    3     1     4    1
    4     4     5    1
    5     4     6    1
    6     4     7    1
    7     7     8    1
    8     7     9    1
    9     7    10    1
   10    10    11    1
   11    10    12    1
   12    10    13    1
   13    13    14    1
   14    13    15    1
   15    13    16    1
   16    16    17    1
   17    16    18    1
   18    16    19    1
   19    19    20    1
   20    19    21    1
   21    19    22    1
@<TRIPOS>SUBSTRUCTURE
       1 MOL1            1 RESIDUE      1      MOL     
@<SCITEGIC>MOL_PROPERTY
VConf Rank
SciTegic.value.IntegerValue
424

@<SCITEGIC>MOL_PROPERTY
Conf_Id
SciTegic.value.IntegerValue
38

@<SCITEGIC>MOL_PROPERTY
Delta U+W
SciTegic.value.DoubleValue
-0.439

@<SCITEGIC>MOL_PROPERTY
U+W
SciTegic.value.DoubleValue
-53.598

@<SCITEGIC>MOL_PROPERTY
Grad RMS
SciTegic.value.DoubleValue
0.000000

@<SCITEGIC>MOL_PROPERTY
U
SciTegic.value.DoubleValue
6.751

@<SCITEGIC>MOL_PROPERTY
W
SciTegic.value.DoubleValue
-60.350

@<SCITEGIC>MOL_PROPERTY
W(PB)
SciTegic.value.DoubleValue
-62.659

@<SCITEGIC>MOL_PROPERTY
W(SA)
SciTegic.value.DoubleValue
2.309

@<SCITEGIC>MOL_PROPERTY
Valence
SciTegic.value.DoubleValue
7.602

@<SCITEGIC>MOL_PROPERTY
Coulomb
SciTegic.value.DoubleValue
-1.744

@<SCITEGIC>MOL_PROPERTY
VdW
SciTegic.value.DoubleValue
0.893

@<SCITEGIC>MOL_PROPERTY
VdW6
SciTegic.value.DoubleValue
-7.110

@<SCITEGIC>MOL_PROPERTY
VdW12
SciTegic.value.DoubleValue
8.004

@<SCITEGIC>MOL_PROPERTY
Bond
SciTegic.value.DoubleValue
0.131

@<SCITEGIC>MOL_PROPERTY
Angle
SciTegic.value.DoubleValue
2.489

@<SCITEGIC>MOL_PROPERTY
Pdih
SciTegic.value.DoubleValue
4.981

@<SCITEGIC>MOL_PROPERTY
Idih
SciTegic.value.DoubleValue
0.001

@<SCITEGIC>MOL_PROPERTY
Tether
SciTegic.value.DoubleValue
0.000

@<TRIPOS>MOLECULE
guest-s21_confgen4.mol2 : confsearch ligand conformer 425
          22          21           1
SMALL
USER_CHARGES
 
@<TRIPOS>ATOM
       1    C1      17.454767   19.788441   19.438670 C.2        1 MOL1         0.6145
       2    O1      16.247011   19.729241   19.558594 O.co2      1 MOL1        -0.6735
       3    O2      18.027454   19.743326   18.367910 O.co2      1 MOL1        -0.6735
       4    C2      18.299071   19.902835   20.702930 C.3        1 MOL1        -0.1985
       5    H1      17.723381   20.467128   21.446281 H          1 MOL1         0.0740
       6    H2      19.185876   20.497728   20.457696 H          1 MOL1         0.0740
       7    C3      18.707147   18.521519   21.278302 C.3        1 MOL1        -0.1882
       8    H3      17.799625   17.918286   21.419582 H          1 MOL1         0.0742
       9    H4      19.324268   17.985235   20.544234 H          1 MOL1         0.0742
      10    C4      19.457626   18.608468   22.628836 C.3        1 MOL1        -0.1880
      11    H5      19.574073   17.589203   23.018538 H          1 MOL1         0.0742
      12    H6      18.841595   19.152374   23.357766 H          1 MOL1         0.0742
      13    C5      20.849339   19.278341   22.517348 C.3        1 MOL1        -0.1880
      14    H7      21.464628   18.735386   21.787059 H          1 MOL1         0.0742
      15    H8      20.734127   20.298760   22.130631 H          1 MOL1         0.0742
      16    C6      21.600858   19.361041   23.866605 C.3        1 MOL1        -0.1856
      17    H9      20.983689   19.893562   24.603365 H          1 MOL1         0.0742
      18    H10     22.507600   19.965689   23.727088 H          1 MOL1         0.0742
      19    C7      22.008118   17.981549   24.428562 C.3        1 MOL1        -0.2871
      20    H11     21.129790   17.382888   24.699796 H          1 MOL1         0.0754
      21    H12     22.619375   18.101165   25.332429 H          1 MOL1         0.0754
      22    H13     22.597539   17.416670   23.694655 H          1 MOL1         0.0754
@<TRIPOS>BOND
    1     1     2    1
    2     1     3    2
    3     1     4    1
    4     4     5    1
    5     4     6    1
    6     4     7    1
    7     7     8    1
    8     7     9    1
    9     7    10    1
   10    10    11    1
   11    10    12    1
   12    10    13    1
   13    13    14    1
   14    13    15    1
   15    13    16    1
   16    16    17    1
   17    16    18    1
   18    16    19    1
   19    19    20    1
   20    19    21    1
   21    19    22    1
@<TRIPOS>SUBSTRUCTURE
       1 MOL1            1 RESIDUE      1      MOL     
@<SCITEGIC>MOL_PROPERTY
VConf Rank
SciTegic.value.IntegerValue
425

@<SCITEGIC>MOL_PROPERTY
Conf_Id
SciTegic.value.IntegerValue
60

@<SCITEGIC>MOL_PROPERTY
Delta U+W
SciTegic.value.DoubleValue
0.386

@<SCITEGIC>MOL_PROPERTY
U+W
SciTegic.value.DoubleValue
-52.773

@<SCITEGIC>MOL_PROPERTY
Grad RMS
SciTegic.value.DoubleValue
0.000000

@<SCITEGIC>MOL_PROPERTY
U
SciTegic.value.DoubleValue
7.689

@<SCITEGIC>MOL_PROPERTY
W
SciTegic.value.DoubleValue
-60.463

@<SCITEGIC>MOL_PROPERTY
W(PB)
SciTegic.value.DoubleValue
-62.772

@<SCITEGIC>MOL_PROPERTY
W(SA)
SciTegic.value.DoubleValue
2.309

@<SCITEGIC>MOL_PROPERTY
Valence
SciTegic.value.DoubleValue
8.197

@<SCITEGIC>MOL_PROPERTY
Coulomb
SciTegic.value.DoubleValue
-1.561

@<SCITEGIC>MOL_PROPERTY
VdW
SciTegic.value.DoubleValue
1.053

@<SCITEGIC>MOL_PROPERTY
VdW6
SciTegic.value.DoubleValue
-7.737

@<SCITEGIC>MOL_PROPERTY
VdW12
SciTegic.value.DoubleValue
8.790

@<SCITEGIC>MOL_PROPERTY
Bond
SciTegic.value.DoubleValue
0.181

@<SCITEGIC>MOL_PROPERTY
Angle
SciTegic.value.DoubleValue
2.780

@<SCITEGIC>MOL_PROPERTY
Pdih
SciTegic.value.DoubleValue
5.235

@<SCITEGIC>MOL_PROPERTY
Idih
SciTegic.value.DoubleValue
0.001

@<SCITEGIC>MOL_PROPERTY
Tether
SciTegic.value.DoubleValue
0.000

@<TRIPOS>MOLECULE
guest-s21_confgen4.mol2 : confsearch ligand conformer 426
          22          21           1
SMALL
USER_CHARGES
 
@<TRIPOS>ATOM
       1    C1      22.271168   16.696076   20.406947 C.2        1 MOL1         0.6145
       2    O1      21.851628   16.448829   19.293668 O.co2      1 MOL1        -0.6735
       3    O2      23.131655   16.041977   20.962173 O.co2      1 MOL1        -0.6735
       4    C2      21.668864   17.878452   21.157617 C.3        1 MOL1        -0.1985
       5    H1      21.407840   18.643585   20.418090 H          1 MOL1         0.0740
       6    H2      22.446338   18.302150   21.804478 H          1 MOL1         0.0740
       7    C3      20.427910   17.484237   22.000375 C.3        1 MOL1        -0.1882
       8    H3      19.637592   17.106942   21.336792 H          1 MOL1         0.0742
       9    H4      20.702671   16.649751   22.660365 H          1 MOL1         0.0742
      10    C4      19.874614   18.639323   22.868914 C.3        1 MOL1        -0.1880
      11    H5      20.669292   19.019534   23.525112 H          1 MOL1         0.0742
      12    H6      19.098276   18.227695   23.526324 H          1 MOL1         0.0742
      13    C5      19.280725   19.803621   22.038419 C.3        1 MOL1        -0.1880
      14    H7      20.056838   20.218264   21.382828 H          1 MOL1         0.0742
      15    H8      18.487353   19.422938   21.380890 H          1 MOL1         0.0742
      16    C6      18.723765   20.955779   22.907004 C.3        1 MOL1        -0.1856
      17    H9      18.450674   21.791755   22.248362 H          1 MOL1         0.0742
      18    H10     19.511396   21.331774   23.574505 H          1 MOL1         0.0742
      19    C7      17.484887   20.555541   23.737454 C.3        1 MOL1        -0.2871
      20    H11     16.696487   20.144140   23.093794 H          1 MOL1         0.0754
      21    H12     17.073624   21.430023   24.258091 H          1 MOL1         0.0754
      22    H13     17.735857   19.805497   24.497633 H          1 MOL1         0.0754
@<TRIPOS>BOND
    1     1     2    1
    2     1     3    2
    3     1     4    1
    4     4     5    1
    5     4     6    1
    6     4     7    1
    7     7     8    1
    8     7     9    1
    9     7    10    1
   10    10    11    1
   11    10    12    1
   12    10    13    1
   13    13    14    1
   14    13    15    1
   15    13    16    1
   16    16    17    1
   17    16    18    1
   18    16    19    1
   19    19    20    1
   20    19    21    1
   21    19    22    1
@<TRIPOS>SUBSTRUCTURE
       1 MOL1            1 RESIDUE      1      MOL     
@<SCITEGIC>MOL_PROPERTY
VConf Rank
SciTegic.value.IntegerValue
426

@<SCITEGIC>MOL_PROPERTY
Conf_Id
SciTegic.value.IntegerValue
28

@<SCITEGIC>MOL_PROPERTY
Delta U+W
SciTegic.value.DoubleValue
0.351

@<SCITEGIC>MOL_PROPERTY
U+W
SciTegic.value.DoubleValue
-52.808

@<SCITEGIC>MOL_PROPERTY
Grad RMS
SciTegic.value.DoubleValue
0.000000

@<SCITEGIC>MOL_PROPERTY
U
SciTegic.value.DoubleValue
7.689

@<SCITEGIC>MOL_PROPERTY
W
SciTegic.value.DoubleValue
-60.498

@<SCITEGIC>MOL_PROPERTY
W(PB)
SciTegic.value.DoubleValue
-62.768

@<SCITEGIC>MOL_PROPERTY
W(SA)
SciTegic.value.DoubleValue
2.270

@<SCITEGIC>MOL_PROPERTY
Valence
SciTegic.value.DoubleValue
8.197

@<SCITEGIC>MOL_PROPERTY
Coulomb
SciTegic.value.DoubleValue
-1.561

@<SCITEGIC>MOL_PROPERTY
VdW
SciTegic.value.DoubleValue
1.053

@<SCITEGIC>MOL_PROPERTY
VdW6
SciTegic.value.DoubleValue
-7.737

@<SCITEGIC>MOL_PROPERTY
VdW12
SciTegic.value.DoubleValue
8.791

@<SCITEGIC>MOL_PROPERTY
Bond
SciTegic.value.DoubleValue
0.181

@<SCITEGIC>MOL_PROPERTY
Angle
SciTegic.value.DoubleValue
2.780

@<SCITEGIC>MOL_PROPERTY
Pdih
SciTegic.value.DoubleValue
5.235

@<SCITEGIC>MOL_PROPERTY
Idih
SciTegic.value.DoubleValue
0.001

@<SCITEGIC>MOL_PROPERTY
Tether
SciTegic.value.DoubleValue
0.000

@<TRIPOS>MOLECULE
guest-s21_confgen4.mol2 : confsearch ligand conformer 427
          22          21           1
SMALL
USER_CHARGES
 
@<TRIPOS>ATOM
       1    C1      17.809914   15.883835   22.967398 C.2        1 MOL1         0.6145
       2    O1      18.342878   14.967227   23.560905 O.co2      1 MOL1        -0.6735
       3    O2      16.682267   16.271566   23.200917 O.co2      1 MOL1        -0.6735
       4    C2      18.607486   16.599993   21.883276 C.3        1 MOL1        -0.1985
       5    H1      17.905085   16.944142   21.114612 H          1 MOL1         0.0740
       6    H2      19.272830   15.867751   21.410248 H          1 MOL1         0.0740
       7    C3      19.428046   17.794229   22.429872 C.3        1 MOL1        -0.1882
       8    H3      18.743447   18.502081   22.915399 H          1 MOL1         0.0742
       9    H4      20.119791   17.434775   23.204202 H          1 MOL1         0.0742
      10    C4      20.222573   18.504478   21.309455 C.3        1 MOL1        -0.1880
      11    H5      19.527299   18.909997   20.561700 H          1 MOL1         0.0742
      12    H6      20.843143   17.763429   20.787247 H          1 MOL1         0.0742
      13    C5      21.142443   19.635196   21.827988 C.3        1 MOL1        -0.1880
      14    H7      21.840586   19.229271   22.572805 H          1 MOL1         0.0742
      15    H8      21.756287   19.995626   20.991201 H          1 MOL1         0.0742
      16    C6      20.370432   20.829020   22.433856 C.3        1 MOL1        -0.1856
      17    H9      19.810038   20.506373   23.321109 H          1 MOL1         0.0742
      18    H10     19.634962   21.201797   21.707684 H          1 MOL1         0.0742
      19    C7      21.322777   21.974558   22.831969 C.3        1 MOL1        -0.2871
      20    H11     21.873465   22.349498   21.959319 H          1 MOL1         0.0754
      21    H12     22.052839   21.636206   23.578905 H          1 MOL1         0.0754
      22    H13     20.760312   22.812844   23.263222 H          1 MOL1         0.0754
@<TRIPOS>BOND
    1     1     2    1
    2     1     3    2
    3     1     4    1
    4     4     5    1
    5     4     6    1
    6     4     7    1
    7     7     8    1
    8     7     9    1
    9     7    10    1
   10    10    11    1
   11    10    12    1
   12    10    13    1
   13    13    14    1
   14    13    15    1
   15    13    16    1
   16    16    17    1
   17    16    18    1
   18    16    19    1
   19    19    20    1
   20    19    21    1
   21    19    22    1
@<TRIPOS>SUBSTRUCTURE
       1 MOL1            1 RESIDUE      1      MOL     
@<SCITEGIC>MOL_PROPERTY
VConf Rank
SciTegic.value.IntegerValue
427

@<SCITEGIC>MOL_PROPERTY
Conf_Id
SciTegic.value.IntegerValue
50

@<SCITEGIC>MOL_PROPERTY
Delta U+W
SciTegic.value.DoubleValue
-0.486

@<SCITEGIC>MOL_PROPERTY
U+W
SciTegic.value.DoubleValue
-53.646

@<SCITEGIC>MOL_PROPERTY
Grad RMS
SciTegic.value.DoubleValue
0.000000

@<SCITEGIC>MOL_PROPERTY
U
SciTegic.value.DoubleValue
7.026

@<SCITEGIC>MOL_PROPERTY
W
SciTegic.value.DoubleValue
-60.672

@<SCITEGIC>MOL_PROPERTY
W(PB)
SciTegic.value.DoubleValue
-62.964

@<SCITEGIC>MOL_PROPERTY
W(SA)
SciTegic.value.DoubleValue
2.292

@<SCITEGIC>MOL_PROPERTY
Valence
SciTegic.value.DoubleValue
7.637

@<SCITEGIC>MOL_PROPERTY
Coulomb
SciTegic.value.DoubleValue
-1.488

@<SCITEGIC>MOL_PROPERTY
VdW
SciTegic.value.DoubleValue
0.877

@<SCITEGIC>MOL_PROPERTY
VdW6
SciTegic.value.DoubleValue
-7.165

@<SCITEGIC>MOL_PROPERTY
VdW12
SciTegic.value.DoubleValue
8.043

@<SCITEGIC>MOL_PROPERTY
Bond
SciTegic.value.DoubleValue
0.134

@<SCITEGIC>MOL_PROPERTY
Angle
SciTegic.value.DoubleValue
2.513

@<SCITEGIC>MOL_PROPERTY
Pdih
SciTegic.value.DoubleValue
4.990

@<SCITEGIC>MOL_PROPERTY
Idih
SciTegic.value.DoubleValue
0.001

@<SCITEGIC>MOL_PROPERTY
Tether
SciTegic.value.DoubleValue
0.000

@<TRIPOS>MOLECULE
guest-s21_confgen4.mol2 : confsearch ligand conformer 428
          22          21           1
SMALL
USER_CHARGES
 
@<TRIPOS>ATOM
       1    C1      19.258504   16.488038   24.966326 C.2        1 MOL1         0.6145
       2    O1      19.905038   15.462716   24.881586 O.co2      1 MOL1        -0.6735
       3    O2      18.088900   16.521037   25.294032 O.co2      1 MOL1        -0.6735
       4    C2      19.947350   17.803987   24.622670 C.3        1 MOL1        -0.1985
       5    H1      21.003262   17.719822   24.906538 H          1 MOL1         0.0740
       6    H2      19.506103   18.592180   25.244524 H          1 MOL1         0.0740
       7    C3      19.823774   18.174310   23.124042 C.3        1 MOL1        -0.1882
       8    H3      20.261696   17.371571   22.514830 H          1 MOL1         0.0742
       9    H4      18.759687   18.232821   22.859915 H          1 MOL1         0.0742
      10    C4      20.526638   19.514137   22.804803 C.3        1 MOL1        -0.1880
      11    H5      21.569319   19.460469   23.146709 H          1 MOL1         0.0742
      12    H6      20.054032   20.325831   23.374702 H          1 MOL1         0.0742
      13    C5      20.522870   19.868577   21.298842 C.3        1 MOL1        -0.1880
      14    H7      21.146003   20.761014   21.149885 H          1 MOL1         0.0742
      15    H8      20.998951   19.058930   20.728973 H          1 MOL1         0.0742
      16    C6      19.110995   20.143117   20.733576 C.3        1 MOL1        -0.1856
      17    H9      18.614297   20.916030   21.336156 H          1 MOL1         0.0742
      18    H10     18.493593   19.237787   20.801050 H          1 MOL1         0.0742
      19    C7      19.170320   20.600604   19.262215 C.3        1 MOL1        -0.2871
      20    H11     19.638480   19.833607   18.631399 H          1 MOL1         0.0754
      21    H12     19.749474   21.527871   19.161649 H          1 MOL1         0.0754
      22    H13     18.160581   20.788301   18.874575 H          1 MOL1         0.0754
@<TRIPOS>BOND
    1     1     2    1
    2     1     3    2
    3     1     4    1
    4     4     5    1
    5     4     6    1
    6     4     7    1
    7     7     8    1
    8     7     9    1
    9     7    10    1
   10    10    11    1
   11    10    12    1
   12    10    13    1
   13    13    14    1
   14    13    15    1
   15    13    16    1
   16    16    17    1
   17    16    18    1
   18    16    19    1
   19    19    20    1
   20    19    21    1
   21    19    22    1
@<TRIPOS>SUBSTRUCTURE
       1 MOL1            1 RESIDUE      1      MOL     
@<SCITEGIC>MOL_PROPERTY
VConf Rank
SciTegic.value.IntegerValue
428

@<SCITEGIC>MOL_PROPERTY
Conf_Id
SciTegic.value.IntegerValue
51

@<SCITEGIC>MOL_PROPERTY
Delta U+W
SciTegic.value.DoubleValue
-0.517

@<SCITEGIC>MOL_PROPERTY
U+W
SciTegic.value.DoubleValue
-53.677

@<SCITEGIC>MOL_PROPERTY
Grad RMS
SciTegic.value.DoubleValue
0.000000

@<SCITEGIC>MOL_PROPERTY
U
SciTegic.value.DoubleValue
7.026

@<SCITEGIC>MOL_PROPERTY
W
SciTegic.value.DoubleValue
-60.703

@<SCITEGIC>MOL_PROPERTY
W(PB)
SciTegic.value.DoubleValue
-63.007

@<SCITEGIC>MOL_PROPERTY
W(SA)
SciTegic.value.DoubleValue
2.304

@<SCITEGIC>MOL_PROPERTY
Valence
SciTegic.value.DoubleValue
7.638

@<SCITEGIC>MOL_PROPERTY
Coulomb
SciTegic.value.DoubleValue
-1.488

@<SCITEGIC>MOL_PROPERTY
VdW
SciTegic.value.DoubleValue
0.877

@<SCITEGIC>MOL_PROPERTY
VdW6
SciTegic.value.DoubleValue
-7.165

@<SCITEGIC>MOL_PROPERTY
VdW12
SciTegic.value.DoubleValue
8.042

@<SCITEGIC>MOL_PROPERTY
Bond
SciTegic.value.DoubleValue
0.134

@<SCITEGIC>MOL_PROPERTY
Angle
SciTegic.value.DoubleValue
2.513

@<SCITEGIC>MOL_PROPERTY
Pdih
SciTegic.value.DoubleValue
4.990

@<SCITEGIC>MOL_PROPERTY
Idih
SciTegic.value.DoubleValue
0.001

@<SCITEGIC>MOL_PROPERTY
Tether
SciTegic.value.DoubleValue
0.000

@<TRIPOS>MOLECULE
guest-s21_confgen4.mol2 : confsearch ligand conformer 429
          22          21           1
SMALL
USER_CHARGES
 
@<TRIPOS>ATOM
       1    C1      18.488283   20.205253   25.190890 C.2        1 MOL1         0.6145
       2    O1      17.280709   20.303387   25.095830 O.co2      1 MOL1        -0.6735
       3    O2      19.043364   19.517299   26.024793 O.co2      1 MOL1        -0.6735
       4    C2      19.353190   21.005474   24.220984 C.3        1 MOL1        -0.1985
       5    H1      20.364090   21.086890   24.638548 H          1 MOL1         0.0740
       6    H2      18.944352   22.021906   24.179042 H          1 MOL1         0.0740
       7    C3      19.411210   20.411075   22.789790 C.3        1 MOL1        -0.1882
       8    H3      18.390205   20.309523   22.396228 H          1 MOL1         0.0742
       9    H4      19.934987   21.117370   22.131499 H          1 MOL1         0.0742
      10    C4      20.128594   19.043317   22.743039 C.3        1 MOL1        -0.1880
      11    H5      19.600165   18.326047   23.386230 H          1 MOL1         0.0742
      12    H6      21.143931   19.147428   23.149570 H          1 MOL1         0.0742
      13    C5      20.202601   18.485382   21.305443 C.3        1 MOL1        -0.1880
      14    H7      19.186904   18.381530   20.899635 H          1 MOL1         0.0742
      15    H8      20.733152   19.199609   20.660886 H          1 MOL1         0.0742
      16    C6      20.918206   17.119105   21.258066 C.3        1 MOL1        -0.1856
      17    H9      20.389157   16.401446   21.900386 H          1 MOL1         0.0742
      18    H10     21.935285   17.219421   21.661735 H          1 MOL1         0.0742
      19    C7      20.989633   16.564808   19.821052 C.3        1 MOL1        -0.2871
      20    H11     19.983857   16.424683   19.403704 H          1 MOL1         0.0754
      21    H12     21.501137   15.593612   19.806006 H          1 MOL1         0.0754
      22    H13     21.541621   17.248861   19.163195 H          1 MOL1         0.0754
@<TRIPOS>BOND
    1     1     2    1
    2     1     3    2
    3     1     4    1
    4     4     5    1
    5     4     6    1
    6     4     7    1
    7     7     8    1
    8     7     9    1
    9     7    10    1
   10    10    11    1
   11    10    12    1
   12    10    13    1
   13    13    14    1
   14    13    15    1
   15    13    16    1
   16    16    17    1
   17    16    18    1
   18    16    19    1
   19    19    20    1
   20    19    21    1
   21    19    22    1
@<TRIPOS>SUBSTRUCTURE
       1 MOL1            1 RESIDUE      1      MOL     
@<SCITEGIC>MOL_PROPERTY
VConf Rank
SciTegic.value.IntegerValue
429

@<SCITEGIC>MOL_PROPERTY
Conf_Id
SciTegic.value.IntegerValue
43

@<SCITEGIC>MOL_PROPERTY
Delta U+W
SciTegic.value.DoubleValue
-0.129

@<SCITEGIC>MOL_PROPERTY
U+W
SciTegic.value.DoubleValue
-53.289

@<SCITEGIC>MOL_PROPERTY
Grad RMS
SciTegic.value.DoubleValue
0.000000

@<SCITEGIC>MOL_PROPERTY
U
SciTegic.value.DoubleValue
7.937

@<SCITEGIC>MOL_PROPERTY
W
SciTegic.value.DoubleValue
-61.225

@<SCITEGIC>MOL_PROPERTY
W(PB)
SciTegic.value.DoubleValue
-63.523

@<SCITEGIC>MOL_PROPERTY
W(SA)
SciTegic.value.DoubleValue
2.297

@<SCITEGIC>MOL_PROPERTY
Valence
SciTegic.value.DoubleValue
7.358

@<SCITEGIC>MOL_PROPERTY
Coulomb
SciTegic.value.DoubleValue
-0.022

@<SCITEGIC>MOL_PROPERTY
VdW
SciTegic.value.DoubleValue
0.601

@<SCITEGIC>MOL_PROPERTY
VdW6
SciTegic.value.DoubleValue
-7.363

@<SCITEGIC>MOL_PROPERTY
VdW12
SciTegic.value.DoubleValue
7.964

@<SCITEGIC>MOL_PROPERTY
Bond
SciTegic.value.DoubleValue
0.121

@<SCITEGIC>MOL_PROPERTY
Angle
SciTegic.value.DoubleValue
2.425

@<SCITEGIC>MOL_PROPERTY
Pdih
SciTegic.value.DoubleValue
4.811

@<SCITEGIC>MOL_PROPERTY
Idih
SciTegic.value.DoubleValue
0.000

@<SCITEGIC>MOL_PROPERTY
Tether
SciTegic.value.DoubleValue
0.000

@<TRIPOS>MOLECULE
guest-s21_confgen4.mol2 : confsearch ligand conformer 430
          22          21           1
SMALL
USER_CHARGES
 
@<TRIPOS>ATOM
       1    C1      17.860812   16.687370   20.628427 C.2        1 MOL1         0.6145
       2    O1      18.553842   15.917271   19.993163 O.co2      1 MOL1        -0.6735
       3    O2      17.038233   17.425249   20.122771 O.co2      1 MOL1        -0.6735
       4    C2      18.021106   16.714393   22.145894 C.3        1 MOL1        -0.1985
       5    H1      18.044257   15.674255   22.491754 H          1 MOL1         0.0740
       6    H2      17.127442   17.174894   22.584310 H          1 MOL1         0.0740
       7    C3      19.296392   17.450518   22.632477 C.3        1 MOL1        -0.1882
       8    H3      19.402091   17.302207   23.715701 H          1 MOL1         0.0742
       9    H4      20.180202   16.996201   22.163298 H          1 MOL1         0.0742
      10    C4      19.261658   18.964738   22.326665 C.3        1 MOL1        -0.1880
      11    H5      18.369645   19.411624   22.786685 H          1 MOL1         0.0742
      12    H6      19.173225   19.121468   21.242680 H          1 MOL1         0.0742
      13    C5      20.525637   19.682278   22.847195 C.3        1 MOL1        -0.1880
      14    H7      20.614758   19.529419   23.931515 H          1 MOL1         0.0742
      15    H8      21.417189   19.234865   22.386691 H          1 MOL1         0.0742
      16    C6      20.492019   21.194381   22.541476 C.3        1 MOL1        -0.1856
      17    H9      19.602274   21.645753   23.001999 H          1 MOL1         0.0742
      18    H10     20.404717   21.351206   21.457369 H          1 MOL1         0.0742
      19    C7      21.756057   21.907435   23.062166 C.3        1 MOL1        -0.2871
      20    H11     21.851492   21.793258   24.149940 H          1 MOL1         0.0754
      21    H12     21.715394   22.980949   22.836335 H          1 MOL1         0.0754
      22    H13     22.659945   21.496503   22.593634 H          1 MOL1         0.0754
@<TRIPOS>BOND
    1     1     2    1
    2     1     3    2
    3     1     4    1
    4     4     5    1
    5     4     6    1
    6     4     7    1
    7     7     8    1
    8     7     9    1
    9     7    10    1
   10    10    11    1
   11    10    12    1
   12    10    13    1
   13    13    14    1
   14    13    15    1
   15    13    16    1
   16    16    17    1
   17    16    18    1
   18    16    19    1
   19    19    20    1
   20    19    21    1
   21    19    22    1
@<TRIPOS>SUBSTRUCTURE
       1 MOL1            1 RESIDUE      1      MOL     
@<SCITEGIC>MOL_PROPERTY
VConf Rank
SciTegic.value.IntegerValue
430

@<SCITEGIC>MOL_PROPERTY
Conf_Id
SciTegic.value.IntegerValue
44

@<SCITEGIC>MOL_PROPERTY
Delta U+W
SciTegic.value.DoubleValue
-0.155

@<SCITEGIC>MOL_PROPERTY
U+W
SciTegic.value.DoubleValue
-53.314

@<SCITEGIC>MOL_PROPERTY
Grad RMS
SciTegic.value.DoubleValue
0.000000

@<SCITEGIC>MOL_PROPERTY
U
SciTegic.value.DoubleValue
7.937

@<SCITEGIC>MOL_PROPERTY
W
SciTegic.value.DoubleValue
-61.252

@<SCITEGIC>MOL_PROPERTY
W(PB)
SciTegic.value.DoubleValue
-63.556

@<SCITEGIC>MOL_PROPERTY
W(SA)
SciTegic.value.DoubleValue
2.304

@<SCITEGIC>MOL_PROPERTY
Valence
SciTegic.value.DoubleValue
7.358

@<SCITEGIC>MOL_PROPERTY
Coulomb
SciTegic.value.DoubleValue
-0.021

@<SCITEGIC>MOL_PROPERTY
VdW
SciTegic.value.DoubleValue
0.600

@<SCITEGIC>MOL_PROPERTY
VdW6
SciTegic.value.DoubleValue
-7.363

@<SCITEGIC>MOL_PROPERTY
VdW12
SciTegic.value.DoubleValue
7.964

@<SCITEGIC>MOL_PROPERTY
Bond
SciTegic.value.DoubleValue
0.121

@<SCITEGIC>MOL_PROPERTY
Angle
SciTegic.value.DoubleValue
2.425

@<SCITEGIC>MOL_PROPERTY
Pdih
SciTegic.value.DoubleValue
4.811

@<SCITEGIC>MOL_PROPERTY
Idih
SciTegic.value.DoubleValue
0.001

@<SCITEGIC>MOL_PROPERTY
Tether
SciTegic.value.DoubleValue
0.000

@<TRIPOS>MOLECULE
guest-s21_confgen4.mol2 : confsearch ligand conformer 431
          22          21           1
SMALL
USER_CHARGES
 
@<TRIPOS>ATOM
       1    C1      23.205990   19.433912   22.906509 C.2        1 MOL1         0.6145
       2    O1      23.531089   20.603733   22.854038 O.co2      1 MOL1        -0.6735
       3    O2      23.785519   18.547800   22.310003 O.co2      1 MOL1        -0.6735
       4    C2      22.016491   19.056746   23.785229 C.3        1 MOL1        -0.1985
       5    H1      22.140683   19.574741   24.743502 H          1 MOL1         0.0740
       6    H2      22.063967   17.981694   23.997120 H          1 MOL1         0.0740
       7    C3      20.638127   19.421632   23.174821 C.3        1 MOL1        -0.1882
       8    H3      19.866156   19.257006   23.937135 H          1 MOL1         0.0742
       9    H4      20.620407   20.492879   22.930859 H          1 MOL1         0.0742
      10    C4      20.309297   18.590209   21.911565 C.3        1 MOL1        -0.1880
      11    H5      20.285873   17.521928   22.166574 H          1 MOL1         0.0742
      12    H6      21.117236   18.714973   21.177630 H          1 MOL1         0.0742
      13    C5      18.975332   18.992172   21.238671 C.3        1 MOL1        -0.1880
      14    H7      18.999121   20.060587   20.984030 H          1 MOL1         0.0742
      15    H8      18.888277   18.448513   20.288009 H          1 MOL1         0.0742
      16    C6      17.731047   18.689896   22.104009 C.3        1 MOL1        -0.1856
      17    H9      17.756985   19.285472   23.025872 H          1 MOL1         0.0742
      18    H10     17.736211   17.632991   22.404205 H          1 MOL1         0.0742
      19    C7      16.425477   18.999839   21.344297 C.3        1 MOL1        -0.2871
      20    H11     16.381472   20.058099   21.055275 H          1 MOL1         0.0754
      21    H12     15.551716   18.783412   21.972599 H          1 MOL1         0.0754
      22    H13     16.346583   18.391920   20.433491 H          1 MOL1         0.0754
@<TRIPOS>BOND
    1     1     2    1
    2     1     3    2
    3     1     4    1
    4     4     5    1
    5     4     6    1
    6     4     7    1
    7     7     8    1
    8     7     9    1
    9     7    10    1
   10    10    11    1
   11    10    12    1
   12    10    13    1
   13    13    14    1
   14    13    15    1
   15    13    16    1
   16    16    17    1
   17    16    18    1
   18    16    19    1
   19    19    20    1
   20    19    21    1
   21    19    22    1
@<TRIPOS>SUBSTRUCTURE
       1 MOL1            1 RESIDUE      1      MOL     
@<SCITEGIC>MOL_PROPERTY
VConf Rank
SciTegic.value.IntegerValue
431

@<SCITEGIC>MOL_PROPERTY
Conf_Id
SciTegic.value.IntegerValue
53

@<SCITEGIC>MOL_PROPERTY
Delta U+W
SciTegic.value.DoubleValue
0.723

@<SCITEGIC>MOL_PROPERTY
U+W
SciTegic.value.DoubleValue
-52.436

@<SCITEGIC>MOL_PROPERTY
Grad RMS
SciTegic.value.DoubleValue
0.000000

@<SCITEGIC>MOL_PROPERTY
U
SciTegic.value.DoubleValue
8.587

@<SCITEGIC>MOL_PROPERTY
W
SciTegic.value.DoubleValue
-61.022

@<SCITEGIC>MOL_PROPERTY
W(PB)
SciTegic.value.DoubleValue
-63.285

@<SCITEGIC>MOL_PROPERTY
W(SA)
SciTegic.value.DoubleValue
2.263

@<SCITEGIC>MOL_PROPERTY
Valence
SciTegic.value.DoubleValue
7.933

@<SCITEGIC>MOL_PROPERTY
Coulomb
SciTegic.value.DoubleValue
-0.124

@<SCITEGIC>MOL_PROPERTY
VdW
SciTegic.value.DoubleValue
0.778

@<SCITEGIC>MOL_PROPERTY
VdW6
SciTegic.value.DoubleValue
-7.981

@<SCITEGIC>MOL_PROPERTY
VdW12
SciTegic.value.DoubleValue
8.759

@<SCITEGIC>MOL_PROPERTY
Bond
SciTegic.value.DoubleValue
0.160

@<SCITEGIC>MOL_PROPERTY
Angle
SciTegic.value.DoubleValue
2.698

@<SCITEGIC>MOL_PROPERTY
Pdih
SciTegic.value.DoubleValue
5.074

@<SCITEGIC>MOL_PROPERTY
Idih
SciTegic.value.DoubleValue
0.001

@<SCITEGIC>MOL_PROPERTY
Tether
SciTegic.value.DoubleValue
0.000

@<TRIPOS>MOLECULE
guest-s21_confgen4.mol2 : confsearch ligand conformer 432
          22          21           1
SMALL
USER_CHARGES
 
@<TRIPOS>ATOM
       1    C1      21.140836   17.189434   19.886701 C.2        1 MOL1         0.6145
       2    O1      22.300101   17.527834   19.751946 O.co2      1 MOL1        -0.6735
       3    O2      20.627800   16.282718   19.261207 O.co2      1 MOL1        -0.6735
       4    C2      20.289127   17.928244   20.912738 C.3        1 MOL1        -0.1985
       5    H1      19.250817   17.924357   20.560348 H          1 MOL1         0.0740
       6    H2      20.627053   18.970380   20.934850 H          1 MOL1         0.0740
       7    C3      20.377590   17.303318   22.327933 C.3        1 MOL1        -0.1882
       8    H3      20.166544   16.227664   22.251453 H          1 MOL1         0.0742
       9    H4      21.409132   17.388539   22.696600 H          1 MOL1         0.0742
      10    C4      19.403777   17.922660   23.361745 C.3        1 MOL1        -0.1880
      11    H5      19.525248   17.369220   24.302966 H          1 MOL1         0.0742
      12    H6      18.364158   17.754345   23.048986 H          1 MOL1         0.0742
      13    C5      19.641085   19.426324   23.652241 C.3        1 MOL1        -0.1880
      14    H7      19.448410   19.609432   24.718234 H          1 MOL1         0.0742
      15    H8      20.696479   19.681226   23.484515 H          1 MOL1         0.0742
      16    C6      18.723791   20.361590   22.830899 C.3        1 MOL1        -0.1856
      17    H9      17.672357   20.132761   23.052977 H          1 MOL1         0.0742
      18    H10     18.861482   20.191838   21.756380 H          1 MOL1         0.0742
      19    C7      18.999337   21.845056   23.148283 C.3        1 MOL1        -0.2871
      20    H11     18.830383   22.057514   24.212073 H          1 MOL1         0.0754
      21    H12     18.336209   22.495463   22.563248 H          1 MOL1         0.0754
      22    H13     20.036272   22.111951   22.905605 H          1 MOL1         0.0754
@<TRIPOS>BOND
    1     1     2    1
    2     1     3    2
    3     1     4    1
    4     4     5    1
    5     4     6    1
    6     4     7    1
    7     7     8    1
    8     7     9    1
    9     7    10    1
   10    10    11    1
   11    10    12    1
   12    10    13    1
   13    13    14    1
   14    13    15    1
   15    13    16    1
   16    16    17    1
   17    16    18    1
   18    16    19    1
   19    19    20    1
   20    19    21    1
   21    19    22    1
@<TRIPOS>SUBSTRUCTURE
       1 MOL1            1 RESIDUE      1      MOL     
@<SCITEGIC>MOL_PROPERTY
VConf Rank
SciTegic.value.IntegerValue
432

@<SCITEGIC>MOL_PROPERTY
Conf_Id
SciTegic.value.IntegerValue
5

@<SCITEGIC>MOL_PROPERTY
Delta U+W
SciTegic.value.DoubleValue
2.167

@<SCITEGIC>MOL_PROPERTY
U+W
SciTegic.value.DoubleValue
-50.993

@<SCITEGIC>MOL_PROPERTY
Grad RMS
SciTegic.value.DoubleValue
0.000000

@<SCITEGIC>MOL_PROPERTY
U
SciTegic.value.DoubleValue
10.045

@<SCITEGIC>MOL_PROPERTY
W
SciTegic.value.DoubleValue
-61.037

@<SCITEGIC>MOL_PROPERTY
W(PB)
SciTegic.value.DoubleValue
-63.303

@<SCITEGIC>MOL_PROPERTY
W(SA)
SciTegic.value.DoubleValue
2.266

@<SCITEGIC>MOL_PROPERTY
Valence
SciTegic.value.DoubleValue
10.100

@<SCITEGIC>MOL_PROPERTY
Coulomb
SciTegic.value.DoubleValue
-0.883

@<SCITEGIC>MOL_PROPERTY
VdW
SciTegic.value.DoubleValue
0.828

@<SCITEGIC>MOL_PROPERTY
VdW6
SciTegic.value.DoubleValue
-8.177

@<SCITEGIC>MOL_PROPERTY
VdW12
SciTegic.value.DoubleValue
9.005

@<SCITEGIC>MOL_PROPERTY
Bond
SciTegic.value.DoubleValue
0.182

@<SCITEGIC>MOL_PROPERTY
Angle
SciTegic.value.DoubleValue
2.988

@<SCITEGIC>MOL_PROPERTY
Pdih
SciTegic.value.DoubleValue
6.930

@<SCITEGIC>MOL_PROPERTY
Idih
SciTegic.value.DoubleValue
0.001

@<SCITEGIC>MOL_PROPERTY
Tether
SciTegic.value.DoubleValue
0.000

@<TRIPOS>MOLECULE
guest-s21_confgen4.mol2 : confsearch ligand conformer 433
          22          21           1
SMALL
USER_CHARGES
 
@<TRIPOS>ATOM
       1    C1      19.068094   19.070620   19.108016 C.2        1 MOL1         0.6145
       2    O1      18.234640   19.940938   18.951586 O.co2      1 MOL1        -0.6735
       3    O2      19.459539   18.345851   18.214671 O.co2      1 MOL1        -0.6735
       4    C2      19.637403   18.861119   20.506586 C.3        1 MOL1        -0.1985
       5    H1      19.677822   19.839850   20.997688 H          1 MOL1         0.0740
       6    H2      20.667369   18.499051   20.404815 H          1 MOL1         0.0740
       7    C3      18.800964   17.868262   21.352604 C.3        1 MOL1        -0.1882
       8    H3      17.796936   18.285450   21.511151 H          1 MOL1         0.0742
       9    H4      18.661885   16.943951   20.774912 H          1 MOL1         0.0742
      10    C4      19.433296   17.502976   22.719131 C.3        1 MOL1        -0.1880
      11    H5      20.395176   16.994712   22.566137 H          1 MOL1         0.0742
      12    H6      18.778213   16.763111   23.199145 H          1 MOL1         0.0742
      13    C5      19.605148   18.697702   23.691143 C.3        1 MOL1        -0.1880
      14    H7      18.846900   19.465172   23.483745 H          1 MOL1         0.0742
      15    H8      19.411188   18.345232   24.713463 H          1 MOL1         0.0742
      16    C6      21.021635   19.316713   23.657277 C.3        1 MOL1        -0.1856
      17    H9      21.270583   19.656895   22.645019 H          1 MOL1         0.0742
      18    H10     21.763593   18.551096   23.922839 H          1 MOL1         0.0742
      19    C7      21.143451   20.503349   24.634207 C.3        1 MOL1        -0.2871
      20    H11     20.434562   21.300177   24.373633 H          1 MOL1         0.0754
      21    H12     22.155679   20.927033   24.603892 H          1 MOL1         0.0754
      22    H13     20.939396   20.186314   25.665314 H          1 MOL1         0.0754
@<TRIPOS>BOND
    1     1     2    1
    2     1     3    2
    3     1     4    1
    4     4     5    1
    5     4     6    1
    6     4     7    1
    7     7     8    1
    8     7     9    1
    9     7    10    1
   10    10    11    1
   11    10    12    1
   12    10    13    1
   13    13    14    1
   14    13    15    1
   15    13    16    1
   16    16    17    1
   17    16    18    1
   18    16    19    1
   19    19    20    1
   20    19    21    1
   21    19    22    1
@<TRIPOS>SUBSTRUCTURE
       1 MOL1            1 RESIDUE      1      MOL     
@<SCITEGIC>MOL_PROPERTY
VConf Rank
SciTegic.value.IntegerValue
433

@<SCITEGIC>MOL_PROPERTY
Conf_Id
SciTegic.value.IntegerValue
6

@<SCITEGIC>MOL_PROPERTY
Delta U+W
SciTegic.value.DoubleValue
2.118

@<SCITEGIC>MOL_PROPERTY
U+W
SciTegic.value.DoubleValue
-51.042

@<SCITEGIC>MOL_PROPERTY
Grad RMS
SciTegic.value.DoubleValue
0.000000

@<SCITEGIC>MOL_PROPERTY
U
SciTegic.value.DoubleValue
10.045

@<SCITEGIC>MOL_PROPERTY
W
SciTegic.value.DoubleValue
-61.086

@<SCITEGIC>MOL_PROPERTY
W(PB)
SciTegic.value.DoubleValue
-63.356

@<SCITEGIC>MOL_PROPERTY
W(SA)
SciTegic.value.DoubleValue
2.270

@<SCITEGIC>MOL_PROPERTY
Valence
SciTegic.value.DoubleValue
10.100

@<SCITEGIC>MOL_PROPERTY
Coulomb
SciTegic.value.DoubleValue
-0.883

@<SCITEGIC>MOL_PROPERTY
VdW
SciTegic.value.DoubleValue
0.828

@<SCITEGIC>MOL_PROPERTY
VdW6
SciTegic.value.DoubleValue
-8.177

@<SCITEGIC>MOL_PROPERTY
VdW12
SciTegic.value.DoubleValue
9.004

@<SCITEGIC>MOL_PROPERTY
Bond
SciTegic.value.DoubleValue
0.182

@<SCITEGIC>MOL_PROPERTY
Angle
SciTegic.value.DoubleValue
2.988

@<SCITEGIC>MOL_PROPERTY
Pdih
SciTegic.value.DoubleValue
6.930

@<SCITEGIC>MOL_PROPERTY
Idih
SciTegic.value.DoubleValue
0.001

@<SCITEGIC>MOL_PROPERTY
Tether
SciTegic.value.DoubleValue
0.000

@<TRIPOS>MOLECULE
guest-s21_confgen4.mol2 : confsearch ligand conformer 434
          22          21           1
SMALL
USER_CHARGES
 
@<TRIPOS>ATOM
       1    C1      20.104393   21.565038   21.963954 C.2        1 MOL1         0.6145
       2    O1      21.201988   21.841296   22.407195 O.co2      1 MOL1        -0.6735
       3    O2      19.067234   22.004074   22.420686 O.co2      1 MOL1        -0.6735
       4    C2      20.025713   20.676022   20.724231 C.3        1 MOL1        -0.1985
       5    H1      20.526150   21.225747   19.918688 H          1 MOL1         0.0740
       6    H2      18.975311   20.570956   20.426809 H          1 MOL1         0.0740
       7    C3      20.687206   19.276432   20.867957 C.3        1 MOL1        -0.1882
       8    H3      20.895864   18.895084   19.859266 H          1 MOL1         0.0742
       9    H4      21.663844   19.372628   21.362423 H          1 MOL1         0.0742
      10    C4      19.822251   18.221386   21.601200 C.3        1 MOL1        -0.1880
      11    H5      20.318622   17.246004   21.505178 H          1 MOL1         0.0742
      12    H6      18.851119   18.124369   21.096900 H          1 MOL1         0.0742
      13    C5      19.601008   18.520030   23.101323 C.3        1 MOL1        -0.1880
      14    H7      20.567502   18.718491   23.584593 H          1 MOL1         0.0742
      15    H8      18.992480   19.425955   23.215588 H          1 MOL1         0.0742
      16    C6      18.895159   17.349497   23.817965 C.3        1 MOL1        -0.1856
      17    H9      19.497948   16.436082   23.719609 H          1 MOL1         0.0742
      18    H10     17.929034   17.148629   23.334571 H          1 MOL1         0.0742
      19    C7      18.667174   17.653289   25.312338 C.3        1 MOL1        -0.2871
      20    H11     19.620971   17.827727   25.827325 H          1 MOL1         0.0754
      21    H12     18.163842   16.811936   25.806107 H          1 MOL1         0.0754
      22    H13     18.040674   18.545858   25.440093 H          1 MOL1         0.0754
@<TRIPOS>BOND
    1     1     2    1
    2     1     3    2
    3     1     4    1
    4     4     5    1
    5     4     6    1
    6     4     7    1
    7     7     8    1
    8     7     9    1
    9     7    10    1
   10    10    11    1
   11    10    12    1
   12    10    13    1
   13    13    14    1
   14    13    15    1
   15    13    16    1
   16    16    17    1
   17    16    18    1
   18    16    19    1
   19    19    20    1
   20    19    21    1
   21    19    22    1
@<TRIPOS>SUBSTRUCTURE
       1 MOL1            1 RESIDUE      1      MOL     
@<SCITEGIC>MOL_PROPERTY
VConf Rank
SciTegic.value.IntegerValue
434

@<SCITEGIC>MOL_PROPERTY
Conf_Id
SciTegic.value.IntegerValue
8

@<SCITEGIC>MOL_PROPERTY
Delta U+W
SciTegic.value.DoubleValue
1.886

@<SCITEGIC>MOL_PROPERTY
U+W
SciTegic.value.DoubleValue
-51.274

@<SCITEGIC>MOL_PROPERTY
Grad RMS
SciTegic.value.DoubleValue
0.000000

@<SCITEGIC>MOL_PROPERTY
U
SciTegic.value.DoubleValue
11.237

@<SCITEGIC>MOL_PROPERTY
W
SciTegic.value.DoubleValue
-62.510

@<SCITEGIC>MOL_PROPERTY
W(PB)
SciTegic.value.DoubleValue
-64.777

@<SCITEGIC>MOL_PROPERTY
W(SA)
SciTegic.value.DoubleValue
2.267

@<SCITEGIC>MOL_PROPERTY
Valence
SciTegic.value.DoubleValue
9.029

@<SCITEGIC>MOL_PROPERTY
Coulomb
SciTegic.value.DoubleValue
1.667

@<SCITEGIC>MOL_PROPERTY
VdW
SciTegic.value.DoubleValue
0.540

@<SCITEGIC>MOL_PROPERTY
VdW6
SciTegic.value.DoubleValue
-8.825

@<SCITEGIC>MOL_PROPERTY
VdW12
SciTegic.value.DoubleValue
9.365

@<SCITEGIC>MOL_PROPERTY
Bond
SciTegic.value.DoubleValue
0.186

@<SCITEGIC>MOL_PROPERTY
Angle
SciTegic.value.DoubleValue
3.195

@<SCITEGIC>MOL_PROPERTY
Pdih
SciTegic.value.DoubleValue
5.642

@<SCITEGIC>MOL_PROPERTY
Idih
SciTegic.value.DoubleValue
0.007

@<SCITEGIC>MOL_PROPERTY
Tether
SciTegic.value.DoubleValue
0.000

@<TRIPOS>MOLECULE
guest-s21_confgen4.mol2 : confsearch ligand conformer 435
          22          21           1
SMALL
USER_CHARGES
 
@<TRIPOS>ATOM
       1    C1      17.946768   19.781159   20.035149 C.2        1 MOL1         0.6145
       2    O1      17.211381   18.837312   20.247572 O.co2      1 MOL1        -0.6735
       3    O2      18.368941   20.069321   18.932407 O.co2      1 MOL1        -0.6735
       4    C2      18.338722   20.672206   21.210552 C.3        1 MOL1        -0.1985
       5    H1      17.671565   20.456786   22.052695 H          1 MOL1         0.0740
       6    H2      18.137565   21.708354   20.914484 H          1 MOL1         0.0740
       7    C3      19.826080   20.541245   21.639226 C.3        1 MOL1        -0.1882
       8    H3      20.461951   20.841239   20.794834 H          1 MOL1         0.0742
       9    H4      20.032398   21.255330   22.447834 H          1 MOL1         0.0742
      10    C4      20.243334   19.121000   22.094785 C.3        1 MOL1        -0.1880
      11    H5      21.324967   19.129029   22.279174 H          1 MOL1         0.0742
      12    H6      20.073489   18.404908   21.279132 H          1 MOL1         0.0742
      13    C5      19.506079   18.640989   23.368947 C.3        1 MOL1        -0.1880
      14    H7      19.657239   19.364534   24.181428 H          1 MOL1         0.0742
      15    H8      18.426490   18.610070   23.172828 H          1 MOL1         0.0742
      16    C6      19.944932   17.234537   23.839372 C.3        1 MOL1        -0.1856
      17    H9      19.809190   16.511602   23.023090 H          1 MOL1         0.0742
      18    H10     19.279254   16.912688   24.652061 H          1 MOL1         0.0742
      19    C7      21.403242   17.182579   24.344789 C.3        1 MOL1        -0.2871
      20    H11     22.116620   17.378303   23.534768 H          1 MOL1         0.0754
      21    H12     21.631632   16.190238   24.754662 H          1 MOL1         0.0754
      22    H13     21.570663   17.922397   25.138348 H          1 MOL1         0.0754
@<TRIPOS>BOND
    1     1     2    1
    2     1     3    2
    3     1     4    1
    4     4     5    1
    5     4     6    1
    6     4     7    1
    7     7     8    1
    8     7     9    1
    9     7    10    1
   10    10    11    1
   11    10    12    1
   12    10    13    1
   13    13    14    1
   14    13    15    1
   15    13    16    1
   16    16    17    1
   17    16    18    1
   18    16    19    1
   19    19    20    1
   20    19    21    1
   21    19    22    1
@<TRIPOS>SUBSTRUCTURE
       1 MOL1            1 RESIDUE      1      MOL     
@<SCITEGIC>MOL_PROPERTY
VConf Rank
SciTegic.value.IntegerValue
435

@<SCITEGIC>MOL_PROPERTY
Conf_Id
SciTegic.value.IntegerValue
93

@<SCITEGIC>MOL_PROPERTY
Delta U+W
SciTegic.value.DoubleValue
1.836

@<SCITEGIC>MOL_PROPERTY
U+W
SciTegic.value.DoubleValue
-51.323

@<SCITEGIC>MOL_PROPERTY
Grad RMS
SciTegic.value.DoubleValue
0.000000

@<SCITEGIC>MOL_PROPERTY
U
SciTegic.value.DoubleValue
10.427

@<SCITEGIC>MOL_PROPERTY
W
SciTegic.value.DoubleValue
-61.751

@<SCITEGIC>MOL_PROPERTY
W(PB)
SciTegic.value.DoubleValue
-63.980

@<SCITEGIC>MOL_PROPERTY
W(SA)
SciTegic.value.DoubleValue
2.230

@<SCITEGIC>MOL_PROPERTY
Valence
SciTegic.value.DoubleValue
8.446

@<SCITEGIC>MOL_PROPERTY
Coulomb
SciTegic.value.DoubleValue
1.306

@<SCITEGIC>MOL_PROPERTY
VdW
SciTegic.value.DoubleValue
0.676

@<SCITEGIC>MOL_PROPERTY
VdW6
SciTegic.value.DoubleValue
-8.928

@<SCITEGIC>MOL_PROPERTY
VdW12
SciTegic.value.DoubleValue
9.604

@<SCITEGIC>MOL_PROPERTY
Bond
SciTegic.value.DoubleValue
0.209

@<SCITEGIC>MOL_PROPERTY
Angle
SciTegic.value.DoubleValue
3.066

@<SCITEGIC>MOL_PROPERTY
Pdih
SciTegic.value.DoubleValue
5.170

@<SCITEGIC>MOL_PROPERTY
Idih
SciTegic.value.DoubleValue
0.001

@<SCITEGIC>MOL_PROPERTY
Tether
SciTegic.value.DoubleValue
0.000

@<TRIPOS>MOLECULE
guest-s21_confgen4.mol2 : confsearch ligand conformer 436
          22          21           1
SMALL
USER_CHARGES
 
@<TRIPOS>ATOM
       1    C1      18.775585   18.771382   25.371673 C.2        1 MOL1         0.6145
       2    O1      18.343188   17.743195   25.854551 O.co2      1 MOL1        -0.6735
       3    O2      18.125669   19.793663   25.275139 O.co2      1 MOL1        -0.6735
       4    C2      20.223163   18.785641   24.888481 C.3        1 MOL1        -0.1985
       5    H1      20.840633   18.381321   25.699023 H          1 MOL1         0.0740
       6    H2      20.537478   19.826284   24.750721 H          1 MOL1         0.0740
       7    C3      20.469969   17.960440   23.595701 C.3        1 MOL1        -0.1882
       8    H3      21.541431   17.979410   23.354994 H          1 MOL1         0.0742
       9    H4      20.218960   16.909856   23.797179 H          1 MOL1         0.0742
      10    C4      19.662192   18.436158   22.362850 C.3        1 MOL1        -0.1880
      11    H5      18.586866   18.386704   22.582288 H          1 MOL1         0.0742
      12    H6      19.843991   17.727313   21.545241 H          1 MOL1         0.0742
      13    C5      20.031947   19.866093   21.898083 C.3        1 MOL1        -0.1880
      14    H7      19.824992   20.575632   22.709661 H          1 MOL1         0.0742
      15    H8      21.110101   19.924961   21.696560 H          1 MOL1         0.0742
      16    C6      19.245435   20.328606   20.649293 C.3        1 MOL1        -0.1856
      17    H9      19.457746   21.392412   20.474884 H          1 MOL1         0.0742
      18    H10     18.166286   20.255800   20.842985 H          1 MOL1         0.0742
      19    C7      19.600386   19.537539   19.371392 C.3        1 MOL1        -0.2871
      20    H11     19.293624   18.487310   19.450552 H          1 MOL1         0.0754
      21    H12     20.680522   19.567907   19.177789 H          1 MOL1         0.0754
      22    H13     19.089016   19.967183   18.500298 H          1 MOL1         0.0754
@<TRIPOS>BOND
    1     1     2    1
    2     1     3    2
    3     1     4    1
    4     4     5    1
    5     4     6    1
    6     4     7    1
    7     7     8    1
    8     7     9    1
    9     7    10    1
   10    10    11    1
   11    10    12    1
   12    10    13    1
   13    13    14    1
   14    13    15    1
   15    13    16    1
   16    16    17    1
   17    16    18    1
   18    16    19    1
   19    19    20    1
   20    19    21    1
   21    19    22    1
@<TRIPOS>SUBSTRUCTURE
       1 MOL1            1 RESIDUE      1      MOL     
@<SCITEGIC>MOL_PROPERTY
VConf Rank
SciTegic.value.IntegerValue
436

@<SCITEGIC>MOL_PROPERTY
Conf_Id
SciTegic.value.IntegerValue
70

@<SCITEGIC>MOL_PROPERTY
Delta U+W
SciTegic.value.DoubleValue
1.803

@<SCITEGIC>MOL_PROPERTY
U+W
SciTegic.value.DoubleValue
-51.356

@<SCITEGIC>MOL_PROPERTY
Grad RMS
SciTegic.value.DoubleValue
0.000000

@<SCITEGIC>MOL_PROPERTY
U
SciTegic.value.DoubleValue
10.428

@<SCITEGIC>MOL_PROPERTY
W
SciTegic.value.DoubleValue
-61.784

@<SCITEGIC>MOL_PROPERTY
W(PB)
SciTegic.value.DoubleValue
-64.014

@<SCITEGIC>MOL_PROPERTY
W(SA)
SciTegic.value.DoubleValue
2.230

@<SCITEGIC>MOL_PROPERTY
Valence
SciTegic.value.DoubleValue
8.445

@<SCITEGIC>MOL_PROPERTY
Coulomb
SciTegic.value.DoubleValue
1.306

@<SCITEGIC>MOL_PROPERTY
VdW
SciTegic.value.DoubleValue
0.676

@<SCITEGIC>MOL_PROPERTY
VdW6
SciTegic.value.DoubleValue
-8.929

@<SCITEGIC>MOL_PROPERTY
VdW12
SciTegic.value.DoubleValue
9.605

@<SCITEGIC>MOL_PROPERTY
Bond
SciTegic.value.DoubleValue
0.209

@<SCITEGIC>MOL_PROPERTY
Angle
SciTegic.value.DoubleValue
3.066

@<SCITEGIC>MOL_PROPERTY
Pdih
SciTegic.value.DoubleValue
5.170

@<SCITEGIC>MOL_PROPERTY
Idih
SciTegic.value.DoubleValue
0.001

@<SCITEGIC>MOL_PROPERTY
Tether
SciTegic.value.DoubleValue
0.000

@<TRIPOS>MOLECULE
guest-s21_confgen4.mol2 : confsearch ligand conformer 437
          22          21           1
SMALL
USER_CHARGES
 
@<TRIPOS>ATOM
       1    C1      22.176260   16.810402   22.274871 C.2        1 MOL1         0.6145
       2    O1      21.720000   15.895161   21.618309 O.co2      1 MOL1        -0.6735
       3    O2      22.619642   16.676179   23.398382 O.co2      1 MOL1        -0.6735
       4    C2      22.212716   18.199536   21.643940 C.3        1 MOL1        -0.1985
       5    H1      22.585295   18.085136   20.619179 H          1 MOL1         0.0740
       6    H2      22.947971   18.809543   22.182579 H          1 MOL1         0.0740
       7    C3      20.837352   18.915558   21.618092 C.3        1 MOL1        -0.1882
       8    H3      20.928329   19.841968   21.035208 H          1 MOL1         0.0742
       9    H4      20.114679   18.278247   21.091584 H          1 MOL1         0.0742
      10    C4      20.319201   19.253265   23.036554 C.3        1 MOL1        -0.1880
      11    H5      21.094017   19.816021   23.574890 H          1 MOL1         0.0742
      12    H6      20.158410   18.327107   23.605485 H          1 MOL1         0.0742
      13    C5      19.017299   20.089072   23.034073 C.3        1 MOL1        -0.1880
      14    H7      18.792152   20.385335   24.067721 H          1 MOL1         0.0742
      15    H8      19.177829   21.019432   22.472356 H          1 MOL1         0.0742
      16    C6      17.801375   19.332646   22.453110 C.3        1 MOL1        -0.1856
      17    H9      17.673071   18.377197   22.980296 H          1 MOL1         0.0742
      18    H10     17.974098   19.094350   21.395405 H          1 MOL1         0.0742
      19    C7      16.507769   20.162935   22.575323 C.3        1 MOL1        -0.2871
      20    H11     16.282369   20.387520   23.626089 H          1 MOL1         0.0754
      21    H12     15.654756   19.613849   22.155881 H          1 MOL1         0.0754
      22    H13     16.598858   21.113337   22.033278 H          1 MOL1         0.0754
@<TRIPOS>BOND
    1     1     2    1
    2     1     3    2
    3     1     4    1
    4     4     5    1
    5     4     6    1
    6     4     7    1
    7     7     8    1
    8     7     9    1
    9     7    10    1
   10    10    11    1
   11    10    12    1
   12    10    13    1
   13    13    14    1
   14    13    15    1
   15    13    16    1
   16    16    17    1
   17    16    18    1
   18    16    19    1
   19    19    20    1
   20    19    21    1
   21    19    22    1
@<TRIPOS>SUBSTRUCTURE
       1 MOL1            1 RESIDUE      1      MOL     
@<SCITEGIC>MOL_PROPERTY
VConf Rank
SciTegic.value.IntegerValue
437

@<SCITEGIC>MOL_PROPERTY
Conf_Id
SciTegic.value.IntegerValue
85

@<SCITEGIC>MOL_PROPERTY
Delta U+W
SciTegic.value.DoubleValue
0.707

@<SCITEGIC>MOL_PROPERTY
U+W
SciTegic.value.DoubleValue
-52.452

@<SCITEGIC>MOL_PROPERTY
Grad RMS
SciTegic.value.DoubleValue
0.000000

@<SCITEGIC>MOL_PROPERTY
U
SciTegic.value.DoubleValue
8.925

@<SCITEGIC>MOL_PROPERTY
W
SciTegic.value.DoubleValue
-61.378

@<SCITEGIC>MOL_PROPERTY
W(PB)
SciTegic.value.DoubleValue
-63.661

@<SCITEGIC>MOL_PROPERTY
W(SA)
SciTegic.value.DoubleValue
2.283

@<SCITEGIC>MOL_PROPERTY
Valence
SciTegic.value.DoubleValue
7.881

@<SCITEGIC>MOL_PROPERTY
Coulomb
SciTegic.value.DoubleValue
0.349

@<SCITEGIC>MOL_PROPERTY
VdW
SciTegic.value.DoubleValue
0.695

@<SCITEGIC>MOL_PROPERTY
VdW6
SciTegic.value.DoubleValue
-8.049

@<SCITEGIC>MOL_PROPERTY
VdW12
SciTegic.value.DoubleValue
8.743

@<SCITEGIC>MOL_PROPERTY
Bond
SciTegic.value.DoubleValue
0.156

@<SCITEGIC>MOL_PROPERTY
Angle
SciTegic.value.DoubleValue
2.660

@<SCITEGIC>MOL_PROPERTY
Pdih
SciTegic.value.DoubleValue
5.064

@<SCITEGIC>MOL_PROPERTY
Idih
SciTegic.value.DoubleValue
0.001

@<SCITEGIC>MOL_PROPERTY
Tether
SciTegic.value.DoubleValue
0.000

@<TRIPOS>MOLECULE
guest-s21_confgen4.mol2 : confsearch ligand conformer 438
          22          21           1
SMALL
USER_CHARGES
 
@<TRIPOS>ATOM
       1    C1      20.681155   21.340911   20.284671 C.2        1 MOL1         0.6145
       2    O1      21.883360   21.494092   20.194228 O.co2      1 MOL1        -0.6735
       3    O2      19.936422   21.287791   19.325753 O.co2      1 MOL1        -0.6735
       4    C2      20.068391   21.232364   21.678276 C.3        1 MOL1        -0.1985
       5    H1      19.190036   21.888088   21.700832 H          1 MOL1         0.0740
       6    H2      20.782502   21.633101   22.407872 H          1 MOL1         0.0740
       7    C3      19.648809   19.792787   22.074833 C.3        1 MOL1        -0.1882
       8    H3      19.083007   19.844135   23.013522 H          1 MOL1         0.0742
       9    H4      18.970966   19.386646   21.311382 H          1 MOL1         0.0742
      10    C4      20.860003   18.849298   22.259002 C.3        1 MOL1        -0.1880
      11    H5      21.487226   19.217318   23.082321 H          1 MOL1         0.0742
      12    H6      21.486069   18.885639   21.357025 H          1 MOL1         0.0742
      13    C5      20.480264   17.370365   22.521830 C.3        1 MOL1        -0.1880
      14    H7      19.931300   16.964048   21.661323 H          1 MOL1         0.0742
      15    H8      21.414504   16.795099   22.577787 H          1 MOL1         0.0742
      16    C6      19.685721   17.126559   23.829180 C.3        1 MOL1        -0.1856
      17    H9      19.926991   17.899562   24.571788 H          1 MOL1         0.0742
      18    H10     20.011696   16.172178   24.265295 H          1 MOL1         0.0742
      19    C7      18.158298   17.053013   23.608728 C.3        1 MOL1        -0.2871
      20    H11     17.761129   17.983234   23.187007 H          1 MOL1         0.0754
      21    H12     17.641710   16.868604   24.559490 H          1 MOL1         0.0754
      22    H13     17.902163   16.234512   22.923501 H          1 MOL1         0.0754
@<TRIPOS>BOND
    1     1     2    1
    2     1     3    2
    3     1     4    1
    4     4     5    1
    5     4     6    1
    6     4     7    1
    7     7     8    1
    8     7     9    1
    9     7    10    1
   10    10    11    1
   11    10    12    1
   12    10    13    1
   13    13    14    1
   14    13    15    1
   15    13    16    1
   16    16    17    1
   17    16    18    1
   18    16    19    1
   19    19    20    1
   20    19    21    1
   21    19    22    1
@<TRIPOS>SUBSTRUCTURE
       1 MOL1            1 RESIDUE      1      MOL     
@<SCITEGIC>MOL_PROPERTY
VConf Rank
SciTegic.value.IntegerValue
438

@<SCITEGIC>MOL_PROPERTY
Conf_Id
SciTegic.value.IntegerValue
82

@<SCITEGIC>MOL_PROPERTY
Delta U+W
SciTegic.value.DoubleValue
3.438

@<SCITEGIC>MOL_PROPERTY
U+W
SciTegic.value.DoubleValue
-49.721

@<SCITEGIC>MOL_PROPERTY
Grad RMS
SciTegic.value.DoubleValue
0.000000

@<SCITEGIC>MOL_PROPERTY
U
SciTegic.value.DoubleValue
11.773

@<SCITEGIC>MOL_PROPERTY
W
SciTegic.value.DoubleValue
-61.495

@<SCITEGIC>MOL_PROPERTY
W(PB)
SciTegic.value.DoubleValue
-63.749

@<SCITEGIC>MOL_PROPERTY
W(SA)
SciTegic.value.DoubleValue
2.254

@<SCITEGIC>MOL_PROPERTY
Valence
SciTegic.value.DoubleValue
10.419

@<SCITEGIC>MOL_PROPERTY
Coulomb
SciTegic.value.DoubleValue
0.565

@<SCITEGIC>MOL_PROPERTY
VdW
SciTegic.value.DoubleValue
0.789

@<SCITEGIC>MOL_PROPERTY
VdW6
SciTegic.value.DoubleValue
-8.847

@<SCITEGIC>MOL_PROPERTY
VdW12
SciTegic.value.DoubleValue
9.636

@<SCITEGIC>MOL_PROPERTY
Bond
SciTegic.value.DoubleValue
0.200

@<SCITEGIC>MOL_PROPERTY
Angle
SciTegic.value.DoubleValue
3.187

@<SCITEGIC>MOL_PROPERTY
Pdih
SciTegic.value.DoubleValue
7.032

@<SCITEGIC>MOL_PROPERTY
Idih
SciTegic.value.DoubleValue
0.001

@<SCITEGIC>MOL_PROPERTY
Tether
SciTegic.value.DoubleValue
0.000

@<TRIPOS>MOLECULE
guest-s21_confgen4.mol2 : confsearch ligand conformer 439
          22          21           1
SMALL
USER_CHARGES
 
@<TRIPOS>ATOM
       1    C1      18.610253   19.440212   19.362788 C.2        1 MOL1         0.6145
       2    O1      19.501744   19.366718   18.540099 O.co2      1 MOL1        -0.6735
       3    O2      17.525514   18.909189   19.227529 O.co2      1 MOL1        -0.6735
       4    C2      18.860514   20.263935   20.623045 C.3        1 MOL1        -0.1985
       5    H1      17.893711   20.515528   21.075647 H          1 MOL1         0.0740
       6    H2      19.319721   21.208905   20.309753 H          1 MOL1         0.0740
       7    C3      19.773747   19.565933   21.664433 C.3        1 MOL1        -0.1882
       8    H3      20.719623   19.277513   21.185466 H          1 MOL1         0.0742
       9    H4      20.018685   20.291390   22.450323 H          1 MOL1         0.0742
      10    C4      19.107586   18.325413   22.303512 C.3        1 MOL1        -0.1880
      11    H5      18.762792   17.650957   21.507856 H          1 MOL1         0.0742
      12    H6      18.208396   18.636402   22.852550 H          1 MOL1         0.0742
      13    C5      20.035426   17.520613   23.247936 C.3        1 MOL1        -0.1880
      14    H7      19.473544   16.641305   23.591409 H          1 MOL1         0.0742
      15    H8      20.892943   17.125465   22.686288 H          1 MOL1         0.0742
      16    C6      20.523316   18.297849   24.496041 C.3        1 MOL1        -0.1856
      17    H9      20.566774   17.603963   25.346883 H          1 MOL1         0.0742
      18    H10     19.794885   19.072958   24.771368 H          1 MOL1         0.0742
      19    C7      21.926020   18.919994   24.316090 C.3        1 MOL1        -0.2871
      20    H11     22.674172   18.142793   24.112834 H          1 MOL1         0.0754
      21    H12     22.231159   19.448996   25.228156 H          1 MOL1         0.0754
      22    H13     21.951444   19.637853   23.488481 H          1 MOL1         0.0754
@<TRIPOS>BOND
    1     1     2    1
    2     1     3    2
    3     1     4    1
    4     4     5    1
    5     4     6    1
    6     4     7    1
    7     7     8    1
    8     7     9    1
    9     7    10    1
   10    10    11    1
   11    10    12    1
   12    10    13    1
   13    13    14    1
   14    13    15    1
   15    13    16    1
   16    16    17    1
   17    16    18    1
   18    16    19    1
   19    19    20    1
   20    19    21    1
   21    19    22    1
@<TRIPOS>SUBSTRUCTURE
       1 MOL1            1 RESIDUE      1      MOL     
@<SCITEGIC>MOL_PROPERTY
VConf Rank
SciTegic.value.IntegerValue
439

@<SCITEGIC>MOL_PROPERTY
Conf_Id
SciTegic.value.IntegerValue
94

@<SCITEGIC>MOL_PROPERTY
Delta U+W
SciTegic.value.DoubleValue
3.471

@<SCITEGIC>MOL_PROPERTY
U+W
SciTegic.value.DoubleValue
-49.688

@<SCITEGIC>MOL_PROPERTY
Grad RMS
SciTegic.value.DoubleValue
0.000000

@<SCITEGIC>MOL_PROPERTY
U
SciTegic.value.DoubleValue
11.773

@<SCITEGIC>MOL_PROPERTY
W
SciTegic.value.DoubleValue
-61.461

@<SCITEGIC>MOL_PROPERTY
W(PB)
SciTegic.value.DoubleValue
-63.710

@<SCITEGIC>MOL_PROPERTY
W(SA)
SciTegic.value.DoubleValue
2.248

@<SCITEGIC>MOL_PROPERTY
Valence
SciTegic.value.DoubleValue
10.419

@<SCITEGIC>MOL_PROPERTY
Coulomb
SciTegic.value.DoubleValue
0.566

@<SCITEGIC>MOL_PROPERTY
VdW
SciTegic.value.DoubleValue
0.789

@<SCITEGIC>MOL_PROPERTY
VdW6
SciTegic.value.DoubleValue
-8.847

@<SCITEGIC>MOL_PROPERTY
VdW12
SciTegic.value.DoubleValue
9.636

@<SCITEGIC>MOL_PROPERTY
Bond
SciTegic.value.DoubleValue
0.200

@<SCITEGIC>MOL_PROPERTY
Angle
SciTegic.value.DoubleValue
3.187

@<SCITEGIC>MOL_PROPERTY
Pdih
SciTegic.value.DoubleValue
7.032

@<SCITEGIC>MOL_PROPERTY
Idih
SciTegic.value.DoubleValue
0.001

@<SCITEGIC>MOL_PROPERTY
Tether
SciTegic.value.DoubleValue
0.000

@<TRIPOS>MOLECULE
guest-s21_confgen4.mol2 : confsearch ligand conformer 440
          22          21           1
SMALL
USER_CHARGES
 
@<TRIPOS>ATOM
       1    C1      21.584406   16.858162   20.641526 C.2        1 MOL1         0.6145
       2    O1      22.547614   16.177731   20.934684 O.co2      1 MOL1        -0.6735
       3    O2      21.349608   17.240374   19.512207 O.co2      1 MOL1        -0.6735
       4    C2      20.628850   17.270760   21.755352 C.3        1 MOL1        -0.1985
       5    H1      20.607514   16.467565   22.501446 H          1 MOL1         0.0740
       6    H2      19.623966   17.341514   21.323802 H          1 MOL1         0.0740
       7    C3      21.029431   18.611327   22.423834 C.3        1 MOL1        -0.1882
       8    H3      22.068535   18.535260   22.772509 H          1 MOL1         0.0742
       9    H4      21.018745   19.413557   21.674075 H          1 MOL1         0.0742
      10    C4      20.131597   18.994737   23.626875 C.3        1 MOL1        -0.1880
      11    H5      20.512726   19.922832   24.072806 H          1 MOL1         0.0742
      12    H6      20.235343   18.226792   24.405364 H          1 MOL1         0.0742
      13    C5      18.624935   19.165786   23.298428 C.3        1 MOL1        -0.1880
      14    H7      18.203834   18.194718   23.006963 H          1 MOL1         0.0742
      15    H8      18.097040   19.453668   24.217665 H          1 MOL1         0.0742
      16    C6      18.304804   20.203223   22.194269 C.3        1 MOL1        -0.1856
      17    H9      17.218448   20.217442   22.031369 H          1 MOL1         0.0742
      18    H10     18.750885   19.890531   21.240729 H          1 MOL1         0.0742
      19    C7      18.773314   21.631850   22.545448 C.3        1 MOL1        -0.2871
      20    H11     18.351553   21.958793   23.504708 H          1 MOL1         0.0754
      21    H12     18.450930   22.342620   21.773684 H          1 MOL1         0.0754
      22    H13     19.867084   21.687123   22.613036 H          1 MOL1         0.0754
@<TRIPOS>BOND
    1     1     2    1
    2     1     3    2
    3     1     4    1
    4     4     5    1
    5     4     6    1
    6     4     7    1
    7     7     8    1
    8     7     9    1
    9     7    10    1
   10    10    11    1
   11    10    12    1
   12    10    13    1
   13    13    14    1
   14    13    15    1
   15    13    16    1
   16    16    17    1
   17    16    18    1
   18    16    19    1
   19    19    20    1
   20    19    21    1
   21    19    22    1
@<TRIPOS>SUBSTRUCTURE
       1 MOL1            1 RESIDUE      1      MOL     
@<SCITEGIC>MOL_PROPERTY
VConf Rank
SciTegic.value.IntegerValue
440

@<SCITEGIC>MOL_PROPERTY
Conf_Id
SciTegic.value.IntegerValue
56

@<SCITEGIC>MOL_PROPERTY
Delta U+W
SciTegic.value.DoubleValue
0.853

@<SCITEGIC>MOL_PROPERTY
U+W
SciTegic.value.DoubleValue
-52.307

@<SCITEGIC>MOL_PROPERTY
Grad RMS
SciTegic.value.DoubleValue
0.000000

@<SCITEGIC>MOL_PROPERTY
U
SciTegic.value.DoubleValue
8.874

@<SCITEGIC>MOL_PROPERTY
W
SciTegic.value.DoubleValue
-61.181

@<SCITEGIC>MOL_PROPERTY
W(PB)
SciTegic.value.DoubleValue
-63.413

@<SCITEGIC>MOL_PROPERTY
W(SA)
SciTegic.value.DoubleValue
2.232

@<SCITEGIC>MOL_PROPERTY
Valence
SciTegic.value.DoubleValue
8.479

@<SCITEGIC>MOL_PROPERTY
Coulomb
SciTegic.value.DoubleValue
-0.357

@<SCITEGIC>MOL_PROPERTY
VdW
SciTegic.value.DoubleValue
0.753

@<SCITEGIC>MOL_PROPERTY
VdW6
SciTegic.value.DoubleValue
-9.081

@<SCITEGIC>MOL_PROPERTY
VdW12
SciTegic.value.DoubleValue
9.833

@<SCITEGIC>MOL_PROPERTY
Bond
SciTegic.value.DoubleValue
0.221

@<SCITEGIC>MOL_PROPERTY
Angle
SciTegic.value.DoubleValue
3.208

@<SCITEGIC>MOL_PROPERTY
Pdih
SciTegic.value.DoubleValue
5.050

@<SCITEGIC>MOL_PROPERTY
Idih
SciTegic.value.DoubleValue
0.000

@<SCITEGIC>MOL_PROPERTY
Tether
SciTegic.value.DoubleValue
0.000

@<TRIPOS>MOLECULE
guest-s21_confgen4.mol2 : confsearch ligand conformer 441
          22          21           1
SMALL
USER_CHARGES
 
@<TRIPOS>ATOM
       1    C1      23.211995   17.328434   20.628718 C.2        1 MOL1         0.6145
       2    O1      23.893974   18.278497   20.961414 O.co2      1 MOL1        -0.6735
       3    O2      23.661091   16.360343   20.048172 O.co2      1 MOL1        -0.6735
       4    C2      21.714762   17.322325   20.941419 C.3        1 MOL1        -0.1985
       5    H1      21.509035   16.425977   21.538250 H          1 MOL1         0.0740
       6    H2      21.182560   17.203708   19.990283 H          1 MOL1         0.0740
       7    C3      21.187854   18.579063   21.683972 C.3        1 MOL1        -0.1882
       8    H3      21.729487   18.695540   22.632948 H          1 MOL1         0.0742
       9    H4      21.402543   19.473959   21.083506 H          1 MOL1         0.0742
      10    C4      19.671011   18.489666   21.959126 C.3        1 MOL1        -0.1880
      11    H5      19.458855   17.594312   22.559510 H          1 MOL1         0.0742
      12    H6      19.131696   18.373125   21.009027 H          1 MOL1         0.0742
      13    C5      19.148958   19.740770   22.697710 C.3        1 MOL1        -0.1880
      14    H7      19.688038   19.857769   23.647884 H          1 MOL1         0.0742
      15    H8      19.360868   20.636409   22.097666 H          1 MOL1         0.0742
      16    C6      17.633233   19.652081   22.973056 C.3        1 MOL1        -0.1856
      17    H9      17.417631   18.758341   23.574905 H          1 MOL1         0.0742
      18    H10     17.090439   19.536939   22.024588 H          1 MOL1         0.0742
      19    C7      17.115847   20.903324   23.710645 C.3        1 MOL1        -0.2871
      20    H11     17.620030   21.025412   24.678273 H          1 MOL1         0.0754
      21    H12     16.037179   20.823458   23.898229 H          1 MOL1         0.0754
      22    H13     17.290321   21.809824   23.116318 H          1 MOL1         0.0754
@<TRIPOS>BOND
    1     1     2    1
    2     1     3    2
    3     1     4    1
    4     4     5    1
    5     4     6    1
    6     4     7    1
    7     7     8    1
    8     7     9    1
    9     7    10    1
   10    10    11    1
   11    10    12    1
   12    10    13    1
   13    13    14    1
   14    13    15    1
   15    13    16    1
   16    16    17    1
   17    16    18    1
   18    16    19    1
   19    19    20    1
   20    19    21    1
   21    19    22    1
@<TRIPOS>SUBSTRUCTURE
       1 MOL1            1 RESIDUE      1      MOL     
@<SCITEGIC>MOL_PROPERTY
VConf Rank
SciTegic.value.IntegerValue
441

@<SCITEGIC>MOL_PROPERTY
Conf_Id
SciTegic.value.IntegerValue
0

@<SCITEGIC>MOL_PROPERTY
Delta U+W
SciTegic.value.DoubleValue
0.000

@<SCITEGIC>MOL_PROPERTY
U+W
SciTegic.value.DoubleValue
-53.159

@<SCITEGIC>MOL_PROPERTY
Grad RMS
SciTegic.value.DoubleValue
0.000000

@<SCITEGIC>MOL_PROPERTY
U
SciTegic.value.DoubleValue
6.763

@<SCITEGIC>MOL_PROPERTY
W
SciTegic.value.DoubleValue
-59.922

@<SCITEGIC>MOL_PROPERTY
W(PB)
SciTegic.value.DoubleValue
-62.256

@<SCITEGIC>MOL_PROPERTY
W(SA)
SciTegic.value.DoubleValue
2.334

@<SCITEGIC>MOL_PROPERTY
Valence
SciTegic.value.DoubleValue
7.600

@<SCITEGIC>MOL_PROPERTY
Coulomb
SciTegic.value.DoubleValue
-2.139

@<SCITEGIC>MOL_PROPERTY
VdW
SciTegic.value.DoubleValue
1.302

@<SCITEGIC>MOL_PROPERTY
VdW6
SciTegic.value.DoubleValue
-6.786

@<SCITEGIC>MOL_PROPERTY
VdW12
SciTegic.value.DoubleValue
8.088

@<SCITEGIC>MOL_PROPERTY
Bond
SciTegic.value.DoubleValue
0.134

@<SCITEGIC>MOL_PROPERTY
Angle
SciTegic.value.DoubleValue
2.720

@<SCITEGIC>MOL_PROPERTY
Pdih
SciTegic.value.DoubleValue
4.746

@<SCITEGIC>MOL_PROPERTY
Idih
SciTegic.value.DoubleValue
0.000

@<SCITEGIC>MOL_PROPERTY
Tether
SciTegic.value.DoubleValue
0.000

@<TRIPOS>MOLECULE
guest-s21_confgen4.mol2 : confsearch ligand conformer 442
          22          21           1
SMALL
USER_CHARGES
 
@<TRIPOS>ATOM
       1    C1      20.258320   22.975706   22.107757 C.2        1 MOL1         0.6145
       2    O1      19.858819   23.509965   21.092180 O.co2      1 MOL1        -0.6735
       3    O2      21.205422   23.379607   22.752964 O.co2      1 MOL1        -0.6735
       4    C2      19.545706   21.715933   22.586679 C.3        1 MOL1        -0.1985
       5    H1      18.486953   21.798453   22.313011 H          1 MOL1         0.0740
       6    H2      19.596513   21.691220   23.681883 H          1 MOL1         0.0740
       7    C3      20.151509   20.419821   21.994103 C.3        1 MOL1        -0.1882
       8    H3      20.104962   20.466020   20.897166 H          1 MOL1         0.0742
       9    H4      21.214488   20.358789   22.265996 H          1 MOL1         0.0742
      10    C4      19.413065   19.159357   22.493915 C.3        1 MOL1        -0.1880
      11    H5      18.350606   19.224128   22.221593 H          1 MOL1         0.0742
      12    H6      19.460380   19.116891   23.590788 H          1 MOL1         0.0742
      13    C5      20.019140   17.868954   21.901609 C.3        1 MOL1        -0.1880
      14    H7      19.972022   17.911038   20.804734 H          1 MOL1         0.0742
      15    H8      21.081613   17.803815   22.173699 H          1 MOL1         0.0742
      16    C6      19.281641   16.608753   22.400667 C.3        1 MOL1        -0.1856
      17    H9      18.218736   16.669319   22.128563 H          1 MOL1         0.0742
      18    H10     19.328312   16.562098   23.497536 H          1 MOL1         0.0742
      19    C7      19.889845   15.322315   21.806946 C.3        1 MOL1        -0.2871
      20    H11     20.945661   15.220008   22.090133 H          1 MOL1         0.0754
      21    H12     19.827858   15.328129   20.710803 H          1 MOL1         0.0754
      22    H13     19.353706   14.436663   22.172006 H          1 MOL1         0.0754
@<TRIPOS>BOND
    1     1     2    1
    2     1     3    2
    3     1     4    1
    4     4     5    1
    5     4     6    1
    6     4     7    1
    7     7     8    1
    8     7     9    1
    9     7    10    1
   10    10    11    1
   11    10    12    1
   12    10    13    1
   13    13    14    1
   14    13    15    1
   15    13    16    1
   16    16    17    1
   17    16    18    1
   18    16    19    1
   19    19    20    1
   20    19    21    1
   21    19    22    1
@<TRIPOS>SUBSTRUCTURE
       1 MOL1            1 RESIDUE      1      MOL     
@<SCITEGIC>MOL_PROPERTY
VConf Rank
SciTegic.value.IntegerValue
442

@<SCITEGIC>MOL_PROPERTY
Conf_Id
SciTegic.value.IntegerValue
10

@<SCITEGIC>MOL_PROPERTY
Delta U+W
SciTegic.value.DoubleValue
-1.291

@<SCITEGIC>MOL_PROPERTY
U+W
SciTegic.value.DoubleValue
-54.451

@<SCITEGIC>MOL_PROPERTY
Grad RMS
SciTegic.value.DoubleValue
0.000000

@<SCITEGIC>MOL_PROPERTY
U
SciTegic.value.DoubleValue
5.779

@<SCITEGIC>MOL_PROPERTY
W
SciTegic.value.DoubleValue
-60.230

@<SCITEGIC>MOL_PROPERTY
W(PB)
SciTegic.value.DoubleValue
-62.557

@<SCITEGIC>MOL_PROPERTY
W(SA)
SciTegic.value.DoubleValue
2.328

@<SCITEGIC>MOL_PROPERTY
Valence
SciTegic.value.DoubleValue
7.101

@<SCITEGIC>MOL_PROPERTY
Coulomb
SciTegic.value.DoubleValue
-2.079

@<SCITEGIC>MOL_PROPERTY
VdW
SciTegic.value.DoubleValue
0.757

@<SCITEGIC>MOL_PROPERTY
VdW6
SciTegic.value.DoubleValue
-6.496

@<SCITEGIC>MOL_PROPERTY
VdW12
SciTegic.value.DoubleValue
7.253

@<SCITEGIC>MOL_PROPERTY
Bond
SciTegic.value.DoubleValue
0.100

@<SCITEGIC>MOL_PROPERTY
Angle
SciTegic.value.DoubleValue
2.262

@<SCITEGIC>MOL_PROPERTY
Pdih
SciTegic.value.DoubleValue
4.738

@<SCITEGIC>MOL_PROPERTY
Idih
SciTegic.value.DoubleValue
0.001

@<SCITEGIC>MOL_PROPERTY
Tether
SciTegic.value.DoubleValue
0.000

@<TRIPOS>MOLECULE
guest-s21_confgen4.mol2 : confsearch ligand conformer 443
          22          21           1
SMALL
USER_CHARGES
 
@<TRIPOS>ATOM
       1    C1      23.433858   20.033017   23.362833 C.2        1 MOL1         0.6145
       2    O1      23.947748   20.829908   22.603008 O.co2      1 MOL1        -0.6735
       3    O2      23.700113   19.963594   24.546364 O.co2      1 MOL1        -0.6735
       4    C2      22.381437   19.081676   22.804649 C.3        1 MOL1        -0.1985
       5    H1      22.440666   18.141052   23.365332 H          1 MOL1         0.0740
       6    H2      22.643843   18.855908   21.764058 H          1 MOL1         0.0740
       7    C3      20.946774   19.659695   22.880719 C.3        1 MOL1        -0.1882
       8    H3      20.704819   19.892720   23.926983 H          1 MOL1         0.0742
       9    H4      20.907200   20.607083   22.325343 H          1 MOL1         0.0742
      10    C4      19.900469   18.678083   22.309730 C.3        1 MOL1        -0.1880
      11    H5      19.940865   17.732857   22.868094 H          1 MOL1         0.0742
      12    H6      20.155507   18.446699   21.267337 H          1 MOL1         0.0742
      13    C5      18.470565   19.261205   22.384569 C.3        1 MOL1        -0.1880
      14    H7      18.257336   19.552808   23.422083 H          1 MOL1         0.0742
      15    H8      18.413572   20.180118   21.785164 H          1 MOL1         0.0742
      16    C6      17.377751   18.271321   21.918530 C.3        1 MOL1        -0.1856
      17    H9      16.392457   18.716781   22.113459 H          1 MOL1         0.0742
      18    H10     17.427592   17.353246   22.520165 H          1 MOL1         0.0742
      19    C7      17.474300   17.915632   20.419072 C.3        1 MOL1        -0.2871
      20    H11     16.628104   17.283966   20.119291 H          1 MOL1         0.0754
      21    H12     18.395785   17.363241   20.196735 H          1 MOL1         0.0754
      22    H13     17.456659   18.821035   19.798534 H          1 MOL1         0.0754
@<TRIPOS>BOND
    1     1     2    1
    2     1     3    2
    3     1     4    1
    4     4     5    1
    5     4     6    1
    6     4     7    1
    7     7     8    1
    8     7     9    1
    9     7    10    1
   10    10    11    1
   11    10    12    1
   12    10    13    1
   13    13    14    1
   14    13    15    1
   15    13    16    1
   16    16    17    1
   17    16    18    1
   18    16    19    1
   19    19    20    1
   20    19    21    1
   21    19    22    1
@<TRIPOS>SUBSTRUCTURE
       1 MOL1            1 RESIDUE      1      MOL     
@<SCITEGIC>MOL_PROPERTY
VConf Rank
SciTegic.value.IntegerValue
443

@<SCITEGIC>MOL_PROPERTY
Conf_Id
SciTegic.value.IntegerValue
37

@<SCITEGIC>MOL_PROPERTY
Delta U+W
SciTegic.value.DoubleValue
-0.345

@<SCITEGIC>MOL_PROPERTY
U+W
SciTegic.value.DoubleValue
-53.504

@<SCITEGIC>MOL_PROPERTY
Grad RMS
SciTegic.value.DoubleValue
0.000000

@<SCITEGIC>MOL_PROPERTY
U
SciTegic.value.DoubleValue
6.751

@<SCITEGIC>MOL_PROPERTY
W
SciTegic.value.DoubleValue
-60.255

@<SCITEGIC>MOL_PROPERTY
W(PB)
SciTegic.value.DoubleValue
-62.592

@<SCITEGIC>MOL_PROPERTY
W(SA)
SciTegic.value.DoubleValue
2.336

@<SCITEGIC>MOL_PROPERTY
Valence
SciTegic.value.DoubleValue
7.602

@<SCITEGIC>MOL_PROPERTY
Coulomb
SciTegic.value.DoubleValue
-1.744

@<SCITEGIC>MOL_PROPERTY
VdW
SciTegic.value.DoubleValue
0.894

@<SCITEGIC>MOL_PROPERTY
VdW6
SciTegic.value.DoubleValue
-7.110

@<SCITEGIC>MOL_PROPERTY
VdW12
SciTegic.value.DoubleValue
8.004

@<SCITEGIC>MOL_PROPERTY
Bond
SciTegic.value.DoubleValue
0.131

@<SCITEGIC>MOL_PROPERTY
Angle
SciTegic.value.DoubleValue
2.489

@<SCITEGIC>MOL_PROPERTY
Pdih
SciTegic.value.DoubleValue
4.982

@<SCITEGIC>MOL_PROPERTY
Idih
SciTegic.value.DoubleValue
0.001

@<SCITEGIC>MOL_PROPERTY
Tether
SciTegic.value.DoubleValue
0.000

@<TRIPOS>MOLECULE
guest-s21_confgen4.mol2 : confsearch ligand conformer 444
          22          21           1
SMALL
USER_CHARGES
 
@<TRIPOS>ATOM
       1    C1      23.406218   19.303579   20.790561 C.2        1 MOL1         0.6145
       2    O1      24.259458   19.091091   21.629179 O.co2      1 MOL1        -0.6735
       3    O2      23.581289   20.007355   19.815622 O.co2      1 MOL1        -0.6735
       4    C2      22.033286   18.669542   20.983610 C.3        1 MOL1        -0.1985
       5    H1      22.171052   17.705488   21.487868 H          1 MOL1         0.0740
       6    H2      21.612336   18.459974   19.992889 H          1 MOL1         0.0740
       7    C3      21.065966   19.564627   21.796796 C.3        1 MOL1        -0.1882
       8    H3      21.507188   19.775418   22.780889 H          1 MOL1         0.0742
       9    H4      20.949605   20.530420   21.285704 H          1 MOL1         0.0742
      10    C4      19.683671   18.900736   21.978065 C.3        1 MOL1        -0.1880
      11    H5      19.812163   17.934254   22.482613 H          1 MOL1         0.0742
      12    H6      19.244119   18.693250   20.992875 H          1 MOL1         0.0742
      13    C5      18.723094   19.796459   22.793686 C.3        1 MOL1        -0.1880
      14    H7      19.136037   19.964047   23.797842 H          1 MOL1         0.0742
      15    H8      18.660722   20.782993   22.314315 H          1 MOL1         0.0742
      16    C6      17.294191   19.217262   22.912338 C.3        1 MOL1        -0.1856
      17    H9      16.875324   19.054296   21.909690 H          1 MOL1         0.0742
      18    H10     16.651039   19.962949   23.399719 H          1 MOL1         0.0742
      19    C7      17.232308   17.903321   23.721004 C.3        1 MOL1        -0.2871
      20    H11     17.673452   18.034196   24.717698 H          1 MOL1         0.0754
      21    H12     17.767816   17.093060   23.210697 H          1 MOL1         0.0754
      22    H13     16.190892   17.582030   23.851942 H          1 MOL1         0.0754
@<TRIPOS>BOND
    1     1     2    1
    2     1     3    2
    3     1     4    1
    4     4     5    1
    5     4     6    1
    6     4     7    1
    7     7     8    1
    8     7     9    1
    9     7    10    1
   10    10    11    1
   11    10    12    1
   12    10    13    1
   13    13    14    1
   14    13    15    1
   15    13    16    1
   16    16    17    1
   17    16    18    1
   18    16    19    1
   19    19    20    1
   20    19    21    1
   21    19    22    1
@<TRIPOS>SUBSTRUCTURE
       1 MOL1            1 RESIDUE      1      MOL     
@<SCITEGIC>MOL_PROPERTY
VConf Rank
SciTegic.value.IntegerValue
444

@<SCITEGIC>MOL_PROPERTY
Conf_Id
SciTegic.value.IntegerValue
38

@<SCITEGIC>MOL_PROPERTY
Delta U+W
SciTegic.value.DoubleValue
-0.439

@<SCITEGIC>MOL_PROPERTY
U+W
SciTegic.value.DoubleValue
-53.598

@<SCITEGIC>MOL_PROPERTY
Grad RMS
SciTegic.value.DoubleValue
0.000000

@<SCITEGIC>MOL_PROPERTY
U
SciTegic.value.DoubleValue
6.751

@<SCITEGIC>MOL_PROPERTY
W
SciTegic.value.DoubleValue
-60.350

@<SCITEGIC>MOL_PROPERTY
W(PB)
SciTegic.value.DoubleValue
-62.659

@<SCITEGIC>MOL_PROPERTY
W(SA)
SciTegic.value.DoubleValue
2.309

@<SCITEGIC>MOL_PROPERTY
Valence
SciTegic.value.DoubleValue
7.602

@<SCITEGIC>MOL_PROPERTY
Coulomb
SciTegic.value.DoubleValue
-1.744

@<SCITEGIC>MOL_PROPERTY
VdW
SciTegic.value.DoubleValue
0.893

@<SCITEGIC>MOL_PROPERTY
VdW6
SciTegic.value.DoubleValue
-7.110

@<SCITEGIC>MOL_PROPERTY
VdW12
SciTegic.value.DoubleValue
8.004

@<SCITEGIC>MOL_PROPERTY
Bond
SciTegic.value.DoubleValue
0.131

@<SCITEGIC>MOL_PROPERTY
Angle
SciTegic.value.DoubleValue
2.489

@<SCITEGIC>MOL_PROPERTY
Pdih
SciTegic.value.DoubleValue
4.981

@<SCITEGIC>MOL_PROPERTY
Idih
SciTegic.value.DoubleValue
0.001

@<SCITEGIC>MOL_PROPERTY
Tether
SciTegic.value.DoubleValue
0.000

@<TRIPOS>MOLECULE
guest-s21_confgen4.mol2 : confsearch ligand conformer 445
          22          21           1
SMALL
USER_CHARGES
 
@<TRIPOS>ATOM
       1    C1      17.269571   20.786874   20.152283 C.2        1 MOL1         0.6145
       2    O1      16.947693   20.436561   19.034143 O.co2      1 MOL1        -0.6735
       3    O2      17.083377   21.906533   20.586134 O.co2      1 MOL1        -0.6735
       4    C2      17.965750   19.772122   21.052229 C.3        1 MOL1        -0.1985
       5    H1      17.579997   18.776231   20.803606 H          1 MOL1         0.0740
       6    H2      17.671106   19.986912   22.085433 H          1 MOL1         0.0740
       7    C3      19.509500   19.800017   20.905028 C.3        1 MOL1        -0.1882
       8    H3      19.762917   19.678808   19.842703 H          1 MOL1         0.0742
       9    H4      19.889507   20.786870   21.203374 H          1 MOL1         0.0742
      10    C4      20.230536   18.695275   21.713961 C.3        1 MOL1        -0.1880
      11    H5      21.291706   18.707968   21.434523 H          1 MOL1         0.0742
      12    H6      19.842396   17.710787   21.419346 H          1 MOL1         0.0742
      13    C5      20.100484   18.871084   23.246997 C.3        1 MOL1        -0.1880
      14    H7      20.487020   19.856335   23.541229 H          1 MOL1         0.0742
      15    H8      19.039942   18.855532   23.528225 H          1 MOL1         0.0742
      16    C6      20.824989   17.769172   24.055080 C.3        1 MOL1        -0.1856
      17    H9      20.449229   16.781114   23.755348 H          1 MOL1         0.0742
      18    H10     20.570796   17.888119   25.117381 H          1 MOL1         0.0742
      19    C7      22.361599   17.808564   23.906988 C.3        1 MOL1        -0.2871
      20    H11     22.672676   17.573058   22.881711 H          1 MOL1         0.0754
      21    H12     22.829811   17.071936   24.572627 H          1 MOL1         0.0754
      22    H13     22.756356   18.798963   24.168525 H          1 MOL1         0.0754
@<TRIPOS>BOND
    1     1     2    1
    2     1     3    2
    3     1     4    1
    4     4     5    1
    5     4     6    1
    6     4     7    1
    7     7     8    1
    8     7     9    1
    9     7    10    1
   10    10    11    1
   11    10    12    1
   12    10    13    1
   13    13    14    1
   14    13    15    1
   15    13    16    1
   16    16    17    1
   17    16    18    1
   18    16    19    1
   19    19    20    1
   20    19    21    1
   21    19    22    1
@<TRIPOS>SUBSTRUCTURE
       1 MOL1            1 RESIDUE      1      MOL     
@<SCITEGIC>MOL_PROPERTY
VConf Rank
SciTegic.value.IntegerValue
445

@<SCITEGIC>MOL_PROPERTY
Conf_Id
SciTegic.value.IntegerValue
60

@<SCITEGIC>MOL_PROPERTY
Delta U+W
SciTegic.value.DoubleValue
0.386

@<SCITEGIC>MOL_PROPERTY
U+W
SciTegic.value.DoubleValue
-52.773

@<SCITEGIC>MOL_PROPERTY
Grad RMS
SciTegic.value.DoubleValue
0.000000

@<SCITEGIC>MOL_PROPERTY
U
SciTegic.value.DoubleValue
7.689

@<SCITEGIC>MOL_PROPERTY
W
SciTegic.value.DoubleValue
-60.463

@<SCITEGIC>MOL_PROPERTY
W(PB)
SciTegic.value.DoubleValue
-62.772

@<SCITEGIC>MOL_PROPERTY
W(SA)
SciTegic.value.DoubleValue
2.309

@<SCITEGIC>MOL_PROPERTY
Valence
SciTegic.value.DoubleValue
8.197

@<SCITEGIC>MOL_PROPERTY
Coulomb
SciTegic.value.DoubleValue
-1.561

@<SCITEGIC>MOL_PROPERTY
VdW
SciTegic.value.DoubleValue
1.053

@<SCITEGIC>MOL_PROPERTY
VdW6
SciTegic.value.DoubleValue
-7.737

@<SCITEGIC>MOL_PROPERTY
VdW12
SciTegic.value.DoubleValue
8.790

@<SCITEGIC>MOL_PROPERTY
Bond
SciTegic.value.DoubleValue
0.181

@<SCITEGIC>MOL_PROPERTY
Angle
SciTegic.value.DoubleValue
2.780

@<SCITEGIC>MOL_PROPERTY
Pdih
SciTegic.value.DoubleValue
5.235

@<SCITEGIC>MOL_PROPERTY
Idih
SciTegic.value.DoubleValue
0.001

@<SCITEGIC>MOL_PROPERTY
Tether
SciTegic.value.DoubleValue
0.000

@<TRIPOS>MOLECULE
guest-s21_confgen4.mol2 : confsearch ligand conformer 446
          22          21           1
SMALL
USER_CHARGES
 
@<TRIPOS>ATOM
       1    C1      22.136117   17.101652   24.600565 C.2        1 MOL1         0.6145
       2    O1      21.504174   16.689304   25.553009 O.co2      1 MOL1        -0.6735
       3    O2      23.345394   17.220784   24.596273 O.co2      1 MOL1        -0.6735
       4    C2      21.367627   17.513600   23.349961 C.3        1 MOL1        -0.1985
       5    H1      20.492635   16.859414   23.266948 H          1 MOL1         0.0740
       6    H2      22.004894   17.317618   22.479388 H          1 MOL1         0.0740
       7    C3      20.938058   19.003737   23.373970 C.3        1 MOL1        -0.1882
       8    H3      20.260976   19.177572   24.221694 H          1 MOL1         0.0742
       9    H4      21.827665   19.622462   23.556248 H          1 MOL1         0.0742
      10    C4      20.266983   19.477814   22.062623 C.3        1 MOL1        -0.1880
      11    H5      20.943080   19.295093   21.216353 H          1 MOL1         0.0742
      12    H6      20.132153   20.565170   22.124320 H          1 MOL1         0.0742
      13    C5      18.898673   18.804573   21.793378 C.3        1 MOL1        -0.1880
      14    H7      19.032516   17.717408   21.728299 H          1 MOL1         0.0742
      15    H8      18.223303   18.985774   22.640575 H          1 MOL1         0.0742
      16    C6      18.226269   19.282073   20.484952 C.3        1 MOL1        -0.1856
      17    H9      17.337722   18.662668   20.300384 H          1 MOL1         0.0742
      18    H10     18.903462   19.113082   19.636338 H          1 MOL1         0.0742
      19    C7      17.796548   20.764880   20.520720 C.3        1 MOL1        -0.2871
      20    H11     17.145903   20.964811   21.382006 H          1 MOL1         0.0754
      21    H12     17.241083   21.025018   19.610388 H          1 MOL1         0.0754
      22    H13     18.664218   21.433376   20.581443 H          1 MOL1         0.0754
@<TRIPOS>BOND
    1     1     2    1
    2     1     3    2
    3     1     4    1
    4     4     5    1
    5     4     6    1
    6     4     7    1
    7     7     8    1
    8     7     9    1
    9     7    10    1
   10    10    11    1
   11    10    12    1
   12    10    13    1
   13    13    14    1
   14    13    15    1
   15    13    16    1
   16    16    17    1
   17    16    18    1
   18    16    19    1
   19    19    20    1
   20    19    21    1
   21    19    22    1
@<TRIPOS>SUBSTRUCTURE
       1 MOL1            1 RESIDUE      1      MOL     
@<SCITEGIC>MOL_PROPERTY
VConf Rank
SciTegic.value.IntegerValue
446

@<SCITEGIC>MOL_PROPERTY
Conf_Id
SciTegic.value.IntegerValue
28

@<SCITEGIC>MOL_PROPERTY
Delta U+W
SciTegic.value.DoubleValue
0.351

@<SCITEGIC>MOL_PROPERTY
U+W
SciTegic.value.DoubleValue
-52.808

@<SCITEGIC>MOL_PROPERTY
Grad RMS
SciTegic.value.DoubleValue
0.000000

@<SCITEGIC>MOL_PROPERTY
U
SciTegic.value.DoubleValue
7.689

@<SCITEGIC>MOL_PROPERTY
W
SciTegic.value.DoubleValue
-60.498

@<SCITEGIC>MOL_PROPERTY
W(PB)
SciTegic.value.DoubleValue
-62.768

@<SCITEGIC>MOL_PROPERTY
W(SA)
SciTegic.value.DoubleValue
2.270

@<SCITEGIC>MOL_PROPERTY
Valence
SciTegic.value.DoubleValue
8.197

@<SCITEGIC>MOL_PROPERTY
Coulomb
SciTegic.value.DoubleValue
-1.561

@<SCITEGIC>MOL_PROPERTY
VdW
SciTegic.value.DoubleValue
1.053

@<SCITEGIC>MOL_PROPERTY
VdW6
SciTegic.value.DoubleValue
-7.737

@<SCITEGIC>MOL_PROPERTY
VdW12
SciTegic.value.DoubleValue
8.791

@<SCITEGIC>MOL_PROPERTY
Bond
SciTegic.value.DoubleValue
0.181

@<SCITEGIC>MOL_PROPERTY
Angle
SciTegic.value.DoubleValue
2.780

@<SCITEGIC>MOL_PROPERTY
Pdih
SciTegic.value.DoubleValue
5.235

@<SCITEGIC>MOL_PROPERTY
Idih
SciTegic.value.DoubleValue
0.001

@<SCITEGIC>MOL_PROPERTY
Tether
SciTegic.value.DoubleValue
0.000

@<TRIPOS>MOLECULE
guest-s21_confgen4.mol2 : confsearch ligand conformer 447
          22          21           1
SMALL
USER_CHARGES
 
@<TRIPOS>ATOM
       1    C1      21.682604   21.390616   24.405129 C.2        1 MOL1         0.6145
       2    O1      20.988685   22.152608   25.048804 O.co2      1 MOL1        -0.6735
       3    O2      22.680538   20.854698   24.844876 O.co2      1 MOL1        -0.6735
       4    C2      21.267012   21.073975   22.972878 C.3        1 MOL1        -0.1985
       5    H1      22.175834   20.893055   22.386397 H          1 MOL1         0.0740
       6    H2      20.782625   21.964299   22.554178 H          1 MOL1         0.0740
       7    C3      20.318333   19.853641   22.877595 C.3        1 MOL1        -0.1882
       8    H3      20.817035   18.981516   23.320498 H          1 MOL1         0.0742
       9    H4      19.417823   20.046707   23.476855 H          1 MOL1         0.0742
      10    C4      19.917019   19.552358   21.414983 C.3        1 MOL1        -0.1880
      11    H5      20.812612   19.307575   20.827630 H          1 MOL1         0.0742
      12    H6      19.490570   20.460633   20.967613 H          1 MOL1         0.0742
      13    C5      18.882759   18.409400   21.282643 C.3        1 MOL1        -0.1880
      14    H7      17.985363   18.655635   21.866578 H          1 MOL1         0.0742
      15    H8      18.563335   18.348984   20.233240 H          1 MOL1         0.0742
      16    C6      19.427481   17.031162   21.720852 C.3        1 MOL1        -0.1856
      17    H9      19.680375   17.046306   22.789110 H          1 MOL1         0.0742
      18    H10     20.354405   16.808210   21.174675 H          1 MOL1         0.0742
      19    C7      18.400227   15.909997   21.465017 C.3        1 MOL1        -0.2871
      20    H11     18.152050   15.839911   20.397846 H          1 MOL1         0.0754
      21    H12     17.471976   16.093804   22.021748 H          1 MOL1         0.0754
      22    H13     18.800235   14.938802   21.784145 H          1 MOL1         0.0754
@<TRIPOS>BOND
    1     1     2    1
    2     1     3    2
    3     1     4    1
    4     4     5    1
    5     4     6    1
    6     4     7    1
    7     7     8    1
    8     7     9    1
    9     7    10    1
   10    10    11    1
   11    10    12    1
   12    10    13    1
   13    13    14    1
   14    13    15    1
   15    13    16    1
   16    16    17    1
   17    16    18    1
   18    16    19    1
   19    19    20    1
   20    19    21    1
   21    19    22    1
@<TRIPOS>SUBSTRUCTURE
       1 MOL1            1 RESIDUE      1      MOL     
@<SCITEGIC>MOL_PROPERTY
VConf Rank
SciTegic.value.IntegerValue
447

@<SCITEGIC>MOL_PROPERTY
Conf_Id
SciTegic.value.IntegerValue
50

@<SCITEGIC>MOL_PROPERTY
Delta U+W
SciTegic.value.DoubleValue
-0.486

@<SCITEGIC>MOL_PROPERTY
U+W
SciTegic.value.DoubleValue
-53.646

@<SCITEGIC>MOL_PROPERTY
Grad RMS
SciTegic.value.DoubleValue
0.000000

@<SCITEGIC>MOL_PROPERTY
U
SciTegic.value.DoubleValue
7.026

@<SCITEGIC>MOL_PROPERTY
W
SciTegic.value.DoubleValue
-60.672

@<SCITEGIC>MOL_PROPERTY
W(PB)
SciTegic.value.DoubleValue
-62.964

@<SCITEGIC>MOL_PROPERTY
W(SA)
SciTegic.value.DoubleValue
2.292

@<SCITEGIC>MOL_PROPERTY
Valence
SciTegic.value.DoubleValue
7.637

@<SCITEGIC>MOL_PROPERTY
Coulomb
SciTegic.value.DoubleValue
-1.488

@<SCITEGIC>MOL_PROPERTY
VdW
SciTegic.value.DoubleValue
0.877

@<SCITEGIC>MOL_PROPERTY
VdW6
SciTegic.value.DoubleValue
-7.165

@<SCITEGIC>MOL_PROPERTY
VdW12
SciTegic.value.DoubleValue
8.043

@<SCITEGIC>MOL_PROPERTY
Bond
SciTegic.value.DoubleValue
0.134

@<SCITEGIC>MOL_PROPERTY
Angle
SciTegic.value.DoubleValue
2.513

@<SCITEGIC>MOL_PROPERTY
Pdih
SciTegic.value.DoubleValue
4.990

@<SCITEGIC>MOL_PROPERTY
Idih
SciTegic.value.DoubleValue
0.001

@<SCITEGIC>MOL_PROPERTY
Tether
SciTegic.value.DoubleValue
0.000

@<TRIPOS>MOLECULE
guest-s21_confgen4.mol2 : confsearch ligand conformer 448
          22          21           1
SMALL
USER_CHARGES
 
@<TRIPOS>ATOM
       1    C1      18.973908   22.581160   21.437184 C.2        1 MOL1         0.6145
       2    O1      19.078417   22.910849   20.272343 O.co2      1 MOL1        -0.6735
       3    O2      19.358673   23.262688   22.366663 O.co2      1 MOL1        -0.6735
       4    C2      18.343625   21.228386   21.748749 C.3        1 MOL1        -0.1985
       5    H1      17.586976   21.020772   20.982595 H          1 MOL1         0.0740
       6    H2      17.819540   21.309570   22.708641 H          1 MOL1         0.0740
       7    C3      19.380672   20.079482   21.802150 C.3        1 MOL1        -0.1882
       8    H3      19.902812   20.017135   20.837376 H          1 MOL1         0.0742
       9    H4      20.137051   20.319647   22.560886 H          1 MOL1         0.0742
      10    C4      18.715371   18.721237   22.124039 C.3        1 MOL1        -0.1880
      11    H5      17.911120   18.537003   21.398641 H          1 MOL1         0.0742
      12    H6      18.237954   18.767154   23.112448 H          1 MOL1         0.0742
      13    C5      19.698359   17.527397   22.078859 C.3        1 MOL1        -0.1880
      14    H7      19.123052   16.598483   22.193175 H          1 MOL1         0.0742
      15    H8      20.173059   17.478728   21.089302 H          1 MOL1         0.0742
      16    C6      20.785380   17.581896   23.175993 C.3        1 MOL1        -0.1856
      17    H9      20.311875   17.683780   24.162208 H          1 MOL1         0.0742
      18    H10     21.423001   18.464240   23.033630 H          1 MOL1         0.0742
      19    C7      21.668344   16.317839   23.160168 C.3        1 MOL1        -0.2871
      20    H11     22.176156   16.206010   22.193210 H          1 MOL1         0.0754
      21    H12     21.067769   15.416258   23.338541 H          1 MOL1         0.0754
      22    H13     22.436755   16.373042   23.942195 H          1 MOL1         0.0754
@<TRIPOS>BOND
    1     1     2    1
    2     1     3    2
    3     1     4    1
    4     4     5    1
    5     4     6    1
    6     4     7    1
    7     7     8    1
    8     7     9    1
    9     7    10    1
   10    10    11    1
   11    10    12    1
   12    10    13    1
   13    13    14    1
   14    13    15    1
   15    13    16    1
   16    16    17    1
   17    16    18    1
   18    16    19    1
   19    19    20    1
   20    19    21    1
   21    19    22    1
@<TRIPOS>SUBSTRUCTURE
       1 MOL1            1 RESIDUE      1      MOL     
@<SCITEGIC>MOL_PROPERTY
VConf Rank
SciTegic.value.IntegerValue
448

@<SCITEGIC>MOL_PROPERTY
Conf_Id
SciTegic.value.IntegerValue
51

@<SCITEGIC>MOL_PROPERTY
Delta U+W
SciTegic.value.DoubleValue
-0.517

@<SCITEGIC>MOL_PROPERTY
U+W
SciTegic.value.DoubleValue
-53.677

@<SCITEGIC>MOL_PROPERTY
Grad RMS
SciTegic.value.DoubleValue
0.000000

@<SCITEGIC>MOL_PROPERTY
U
SciTegic.value.DoubleValue
7.026

@<SCITEGIC>MOL_PROPERTY
W
SciTegic.value.DoubleValue
-60.703

@<SCITEGIC>MOL_PROPERTY
W(PB)
SciTegic.value.DoubleValue
-63.007

@<SCITEGIC>MOL_PROPERTY
W(SA)
SciTegic.value.DoubleValue
2.304

@<SCITEGIC>MOL_PROPERTY
Valence
SciTegic.value.DoubleValue
7.638

@<SCITEGIC>MOL_PROPERTY
Coulomb
SciTegic.value.DoubleValue
-1.488

@<SCITEGIC>MOL_PROPERTY
VdW
SciTegic.value.DoubleValue
0.877

@<SCITEGIC>MOL_PROPERTY
VdW6
SciTegic.value.DoubleValue
-7.165

@<SCITEGIC>MOL_PROPERTY
VdW12
SciTegic.value.DoubleValue
8.042

@<SCITEGIC>MOL_PROPERTY
Bond
SciTegic.value.DoubleValue
0.134

@<SCITEGIC>MOL_PROPERTY
Angle
SciTegic.value.DoubleValue
2.513

@<SCITEGIC>MOL_PROPERTY
Pdih
SciTegic.value.DoubleValue
4.990

@<SCITEGIC>MOL_PROPERTY
Idih
SciTegic.value.DoubleValue
0.001

@<SCITEGIC>MOL_PROPERTY
Tether
SciTegic.value.DoubleValue
0.000

@<TRIPOS>MOLECULE
guest-s21_confgen4.mol2 : confsearch ligand conformer 449
          22          21           1
SMALL
USER_CHARGES
 
@<TRIPOS>ATOM
       1    C1      20.037226   18.417955   25.794668 C.2        1 MOL1         0.6145
       2    O1      20.394913   17.304175   26.123991 O.co2      1 MOL1        -0.6735
       3    O2      20.633507   19.432609   26.097518 O.co2      1 MOL1        -0.6735
       4    C2      18.758574   18.548463   24.971777 C.3        1 MOL1        -0.1985
       5    H1      18.393925   19.579693   25.052411 H          1 MOL1         0.0740
       6    H2      18.001634   17.906834   25.438036 H          1 MOL1         0.0740
       7    C3      18.924773   18.154217   23.481159 C.3        1 MOL1        -0.1882
       8    H3      19.316984   17.129650   23.417245 H          1 MOL1         0.0742
       9    H4      17.936096   18.144691   23.002651 H          1 MOL1         0.0742
      10    C4      19.854003   19.119321   22.711293 C.3        1 MOL1        -0.1880
      11    H5      20.850662   19.121366   23.173976 H          1 MOL1         0.0742
      12    H6      19.464796   20.143749   22.789272 H          1 MOL1         0.0742
      13    C5      19.980009   18.726596   21.223563 C.3        1 MOL1        -0.1880
      14    H7      20.369297   17.702090   21.146425 H          1 MOL1         0.0742
      15    H8      18.984913   18.726624   20.757899 H          1 MOL1         0.0742
      16    C6      20.908460   19.689499   20.454251 C.3        1 MOL1        -0.1856
      17    H9      21.905498   19.690743   20.916221 H          1 MOL1         0.0742
      18    H10     20.521277   20.715241   20.527780 H          1 MOL1         0.0742
      19    C7      21.032363   19.293818   18.969179 C.3        1 MOL1        -0.2871
      20    H11     21.447369   18.282675   18.865443 H          1 MOL1         0.0754
      21    H12     21.695680   19.988573   18.437754 H          1 MOL1         0.0754
      22    H13     20.052673   19.314844   18.474041 H          1 MOL1         0.0754
@<TRIPOS>BOND
    1     1     2    1
    2     1     3    2
    3     1     4    1
    4     4     5    1
    5     4     6    1
    6     4     7    1
    7     7     8    1
    8     7     9    1
    9     7    10    1
   10    10    11    1
   11    10    12    1
   12    10    13    1
   13    13    14    1
   14    13    15    1
   15    13    16    1
   16    16    17    1
   17    16    18    1
   18    16    19    1
   19    19    20    1
   20    19    21    1
   21    19    22    1
@<TRIPOS>SUBSTRUCTURE
       1 MOL1            1 RESIDUE      1      MOL     
@<SCITEGIC>MOL_PROPERTY
VConf Rank
SciTegic.value.IntegerValue
449

@<SCITEGIC>MOL_PROPERTY
Conf_Id
SciTegic.value.IntegerValue
43

@<SCITEGIC>MOL_PROPERTY
Delta U+W
SciTegic.value.DoubleValue
-0.129

@<SCITEGIC>MOL_PROPERTY
U+W
SciTegic.value.DoubleValue
-53.289

@<SCITEGIC>MOL_PROPERTY
Grad RMS
SciTegic.value.DoubleValue
0.000000

@<SCITEGIC>MOL_PROPERTY
U
SciTegic.value.DoubleValue
7.937

@<SCITEGIC>MOL_PROPERTY
W
SciTegic.value.DoubleValue
-61.225

@<SCITEGIC>MOL_PROPERTY
W(PB)
SciTegic.value.DoubleValue
-63.523

@<SCITEGIC>MOL_PROPERTY
W(SA)
SciTegic.value.DoubleValue
2.297

@<SCITEGIC>MOL_PROPERTY
Valence
SciTegic.value.DoubleValue
7.358

@<SCITEGIC>MOL_PROPERTY
Coulomb
SciTegic.value.DoubleValue
-0.022

@<SCITEGIC>MOL_PROPERTY
VdW
SciTegic.value.DoubleValue
0.601

@<SCITEGIC>MOL_PROPERTY
VdW6
SciTegic.value.DoubleValue
-7.363

@<SCITEGIC>MOL_PROPERTY
VdW12
SciTegic.value.DoubleValue
7.964

@<SCITEGIC>MOL_PROPERTY
Bond
SciTegic.value.DoubleValue
0.121

@<SCITEGIC>MOL_PROPERTY
Angle
SciTegic.value.DoubleValue
2.425

@<SCITEGIC>MOL_PROPERTY
Pdih
SciTegic.value.DoubleValue
4.811

@<SCITEGIC>MOL_PROPERTY
Idih
SciTegic.value.DoubleValue
0.000

@<SCITEGIC>MOL_PROPERTY
Tether
SciTegic.value.DoubleValue
0.000

@<TRIPOS>MOLECULE
guest-s21_confgen4.mol2 : confsearch ligand conformer 450
          22          21           1
SMALL
USER_CHARGES
 
@<TRIPOS>ATOM
       1    C1      17.235833   21.139850   21.040943 C.2        1 MOL1         0.6145
       2    O1      16.394344   21.456257   21.858675 O.co2      1 MOL1        -0.6735
       3    O2      16.989409   20.507702   20.032749 O.co2      1 MOL1        -0.6735
       4    C2      18.677203   21.577210   21.286498 C.3        1 MOL1        -0.1985
       5    H1      18.653557   22.632045   21.584497 H          1 MOL1         0.0740
       6    H2      19.224734   21.527642   20.337468 H          1 MOL1         0.0740
       7    C3      19.411547   20.748570   22.372359 C.3        1 MOL1        -0.1882
       8    H3      20.383891   21.215426   22.580046 H          1 MOL1         0.0742
       9    H4      18.836911   20.784804   23.308378 H          1 MOL1         0.0742
      10    C4      19.632069   19.278631   21.950176 C.3        1 MOL1        -0.1880
      11    H5      20.195399   19.248184   21.007442 H          1 MOL1         0.0742
      12    H6      18.662228   18.799531   21.757097 H          1 MOL1         0.0742
      13    C5      20.391869   18.480969   23.031793 C.3        1 MOL1        -0.1880
      14    H7      21.363344   18.956485   23.224616 H          1 MOL1         0.0742
      15    H8      19.827896   18.511851   23.974178 H          1 MOL1         0.0742
      16    C6      20.611791   17.012706   22.611212 C.3        1 MOL1        -0.1856
      17    H9      21.177154   16.977776   21.669614 H          1 MOL1         0.0742
      18    H10     19.641893   16.533196   22.419197 H          1 MOL1         0.0742
      19    C7      21.370236   16.219163   23.693991 C.3        1 MOL1        -0.2871
      20    H11     22.358112   16.659050   23.883718 H          1 MOL1         0.0754
      21    H12     21.517719   15.178081   23.378585 H          1 MOL1         0.0754
      22    H13     20.811250   16.211107   24.638910 H          1 MOL1         0.0754
@<TRIPOS>BOND
    1     1     2    1
    2     1     3    2
    3     1     4    1
    4     4     5    1
    5     4     6    1
    6     4     7    1
    7     7     8    1
    8     7     9    1
    9     7    10    1
   10    10    11    1
   11    10    12    1
   12    10    13    1
   13    13    14    1
   14    13    15    1
   15    13    16    1
   16    16    17    1
   17    16    18    1
   18    16    19    1
   19    19    20    1
   20    19    21    1
   21    19    22    1
@<TRIPOS>SUBSTRUCTURE
       1 MOL1            1 RESIDUE      1      MOL     
@<SCITEGIC>MOL_PROPERTY
VConf Rank
SciTegic.value.IntegerValue
450

@<SCITEGIC>MOL_PROPERTY
Conf_Id
SciTegic.value.IntegerValue
44

@<SCITEGIC>MOL_PROPERTY
Delta U+W
SciTegic.value.DoubleValue
-0.155

@<SCITEGIC>MOL_PROPERTY
U+W
SciTegic.value.DoubleValue
-53.314

@<SCITEGIC>MOL_PROPERTY
Grad RMS
SciTegic.value.DoubleValue
0.000000

@<SCITEGIC>MOL_PROPERTY
U
SciTegic.value.DoubleValue
7.937

@<SCITEGIC>MOL_PROPERTY
W
SciTegic.value.DoubleValue
-61.252

@<SCITEGIC>MOL_PROPERTY
W(PB)
SciTegic.value.DoubleValue
-63.556

@<SCITEGIC>MOL_PROPERTY
W(SA)
SciTegic.value.DoubleValue
2.304

@<SCITEGIC>MOL_PROPERTY
Valence
SciTegic.value.DoubleValue
7.358

@<SCITEGIC>MOL_PROPERTY
Coulomb
SciTegic.value.DoubleValue
-0.021

@<SCITEGIC>MOL_PROPERTY
VdW
SciTegic.value.DoubleValue
0.600

@<SCITEGIC>MOL_PROPERTY
VdW6
SciTegic.value.DoubleValue
-7.363

@<SCITEGIC>MOL_PROPERTY
VdW12
SciTegic.value.DoubleValue
7.964

@<SCITEGIC>MOL_PROPERTY
Bond
SciTegic.value.DoubleValue
0.121

@<SCITEGIC>MOL_PROPERTY
Angle
SciTegic.value.DoubleValue
2.425

@<SCITEGIC>MOL_PROPERTY
Pdih
SciTegic.value.DoubleValue
4.811

@<SCITEGIC>MOL_PROPERTY
Idih
SciTegic.value.DoubleValue
0.001

@<SCITEGIC>MOL_PROPERTY
Tether
SciTegic.value.DoubleValue
0.000

@<TRIPOS>MOLECULE
guest-s21_confgen4.mol2 : confsearch ligand conformer 451
          22          21           1
SMALL
USER_CHARGES
 
@<TRIPOS>ATOM
       1    C1      17.535701   19.853097   19.670866 C.2        1 MOL1         0.6145
       2    O1      16.545062   20.423441   20.083500 O.co2      1 MOL1        -0.6735
       3    O2      17.498005   18.901744   18.915636 O.co2      1 MOL1        -0.6735
       4    C2      18.901127   20.373658   20.111251 C.3        1 MOL1        -0.1985
       5    H1      18.884203   21.464912   20.006799 H          1 MOL1         0.0740
       6    H2      19.660546   19.999846   19.413801 H          1 MOL1         0.0740
       7    C3      19.281309   19.999263   21.567587 C.3        1 MOL1        -0.1882
       8    H3      20.195248   20.542797   21.838608 H          1 MOL1         0.0742
       9    H4      18.492162   20.344572   22.249797 H          1 MOL1         0.0742
      10    C4      19.505048   18.478862   21.750706 C.3        1 MOL1        -0.1880
      11    H5      20.322915   18.143303   21.098559 H          1 MOL1         0.0742
      12    H6      18.606168   17.940042   21.421041 H          1 MOL1         0.0742
      13    C5      19.806888   18.071555   23.212492 C.3        1 MOL1        -0.1880
      14    H7      18.988855   18.407510   23.864316 H          1 MOL1         0.0742
      15    H8      19.820211   16.974639   23.271658 H          1 MOL1         0.0742
      16    C6      21.152578   18.617794   23.740853 C.3        1 MOL1        -0.1856
      17    H9      21.132082   19.715123   23.766589 H          1 MOL1         0.0742
      18    H10     21.963767   18.327617   23.058971 H          1 MOL1         0.0742
      19    C7      21.460258   18.089469   25.156461 C.3        1 MOL1        -0.2871
      20    H11     20.677436   18.388739   25.865694 H          1 MOL1         0.0754
      21    H12     22.416550   18.488548   25.518820 H          1 MOL1         0.0754
      22    H13     21.526941   16.993620   25.161443 H          1 MOL1         0.0754
@<TRIPOS>BOND
    1     1     2    1
    2     1     3    2
    3     1     4    1
    4     4     5    1
    5     4     6    1
    6     4     7    1
    7     7     8    1
    8     7     9    1
    9     7    10    1
   10    10    11    1
   11    10    12    1
   12    10    13    1
   13    13    14    1
   14    13    15    1
   15    13    16    1
   16    16    17    1
   17    16    18    1
   18    16    19    1
   19    19    20    1
   20    19    21    1
   21    19    22    1
@<TRIPOS>SUBSTRUCTURE
       1 MOL1            1 RESIDUE      1      MOL     
@<SCITEGIC>MOL_PROPERTY
VConf Rank
SciTegic.value.IntegerValue
451

@<SCITEGIC>MOL_PROPERTY
Conf_Id
SciTegic.value.IntegerValue
53

@<SCITEGIC>MOL_PROPERTY
Delta U+W
SciTegic.value.DoubleValue
0.723

@<SCITEGIC>MOL_PROPERTY
U+W
SciTegic.value.DoubleValue
-52.436

@<SCITEGIC>MOL_PROPERTY
Grad RMS
SciTegic.value.DoubleValue
0.000000

@<SCITEGIC>MOL_PROPERTY
U
SciTegic.value.DoubleValue
8.587

@<SCITEGIC>MOL_PROPERTY
W
SciTegic.value.DoubleValue
-61.022

@<SCITEGIC>MOL_PROPERTY
W(PB)
SciTegic.value.DoubleValue
-63.285

@<SCITEGIC>MOL_PROPERTY
W(SA)
SciTegic.value.DoubleValue
2.263

@<SCITEGIC>MOL_PROPERTY
Valence
SciTegic.value.DoubleValue
7.933

@<SCITEGIC>MOL_PROPERTY
Coulomb
SciTegic.value.DoubleValue
-0.124

@<SCITEGIC>MOL_PROPERTY
VdW
SciTegic.value.DoubleValue
0.778

@<SCITEGIC>MOL_PROPERTY
VdW6
SciTegic.value.DoubleValue
-7.981

@<SCITEGIC>MOL_PROPERTY
VdW12
SciTegic.value.DoubleValue
8.759

@<SCITEGIC>MOL_PROPERTY
Bond
SciTegic.value.DoubleValue
0.160

@<SCITEGIC>MOL_PROPERTY
Angle
SciTegic.value.DoubleValue
2.698

@<SCITEGIC>MOL_PROPERTY
Pdih
SciTegic.value.DoubleValue
5.074

@<SCITEGIC>MOL_PROPERTY
Idih
SciTegic.value.DoubleValue
0.001

@<SCITEGIC>MOL_PROPERTY
Tether
SciTegic.value.DoubleValue
0.000

@<TRIPOS>MOLECULE
guest-s21_confgen4.mol2 : confsearch ligand conformer 452
          22          21           1
SMALL
USER_CHARGES
 
@<TRIPOS>ATOM
       1    C1      20.309163   16.093011   20.761467 C.2        1 MOL1         0.6145
       2    O1      20.193346   16.269112   19.564745 O.co2      1 MOL1        -0.6735
       3    O2      20.650147   15.036706   21.255967 O.co2      1 MOL1        -0.6735
       4    C2      20.033099   17.267957   21.692751 C.3        1 MOL1        -0.1985
       5    H1      19.647182   16.869946   22.638762 H          1 MOL1         0.0740
       6    H2      19.238538   17.870726   21.238801 H          1 MOL1         0.0740
       7    C3      21.289189   18.138238   21.949625 C.3        1 MOL1        -0.1882
       8    H3      22.110305   17.483982   22.273876 H          1 MOL1         0.0742
       9    H4      21.613683   18.592400   21.003213 H          1 MOL1         0.0742
      10    C4      21.092432   19.244831   23.016117 C.3        1 MOL1        -0.1880
      11    H5      22.056242   19.756620   23.142965 H          1 MOL1         0.0742
      12    H6      20.864217   18.793014   23.991174 H          1 MOL1         0.0742
      13    C5      20.025410   20.308657   22.653563 C.3        1 MOL1        -0.1880
      14    H7      20.370059   21.285767   23.018894 H          1 MOL1         0.0742
      15    H8      19.941880   20.402850   21.562182 H          1 MOL1         0.0742
      16    C6      18.639541   20.024303   23.277473 C.3        1 MOL1        -0.1856
      17    H9      18.729406   19.990109   24.371982 H          1 MOL1         0.0742
      18    H10     18.268186   19.041841   22.962465 H          1 MOL1         0.0742
      19    C7      17.610816   21.103739   22.885208 C.3        1 MOL1        -0.2871
      20    H11     17.934556   22.096797   23.223383 H          1 MOL1         0.0754
      21    H12     16.634926   20.891912   23.341061 H          1 MOL1         0.0754
      22    H13     17.475666   21.139349   21.796252 H          1 MOL1         0.0754
@<TRIPOS>BOND
    1     1     2    1
    2     1     3    2
    3     1     4    1
    4     4     5    1
    5     4     6    1
    6     4     7    1
    7     7     8    1
    8     7     9    1
    9     7    10    1
   10    10    11    1
   11    10    12    1
   12    10    13    1
   13    13    14    1
   14    13    15    1
   15    13    16    1
   16    16    17    1
   17    16    18    1
   18    16    19    1
   19    19    20    1
   20    19    21    1
   21    19    22    1
@<TRIPOS>SUBSTRUCTURE
       1 MOL1            1 RESIDUE      1      MOL     
@<SCITEGIC>MOL_PROPERTY
VConf Rank
SciTegic.value.IntegerValue
452

@<SCITEGIC>MOL_PROPERTY
Conf_Id
SciTegic.value.IntegerValue
5

@<SCITEGIC>MOL_PROPERTY
Delta U+W
SciTegic.value.DoubleValue
2.167

@<SCITEGIC>MOL_PROPERTY
U+W
SciTegic.value.DoubleValue
-50.993

@<SCITEGIC>MOL_PROPERTY
Grad RMS
SciTegic.value.DoubleValue
0.000000

@<SCITEGIC>MOL_PROPERTY
U
SciTegic.value.DoubleValue
10.045

@<SCITEGIC>MOL_PROPERTY
W
SciTegic.value.DoubleValue
-61.037

@<SCITEGIC>MOL_PROPERTY
W(PB)
SciTegic.value.DoubleValue
-63.303

@<SCITEGIC>MOL_PROPERTY
W(SA)
SciTegic.value.DoubleValue
2.266

@<SCITEGIC>MOL_PROPERTY
Valence
SciTegic.value.DoubleValue
10.100

@<SCITEGIC>MOL_PROPERTY
Coulomb
SciTegic.value.DoubleValue
-0.883

@<SCITEGIC>MOL_PROPERTY
VdW
SciTegic.value.DoubleValue
0.828

@<SCITEGIC>MOL_PROPERTY
VdW6
SciTegic.value.DoubleValue
-8.177

@<SCITEGIC>MOL_PROPERTY
VdW12
SciTegic.value.DoubleValue
9.005

@<SCITEGIC>MOL_PROPERTY
Bond
SciTegic.value.DoubleValue
0.182

@<SCITEGIC>MOL_PROPERTY
Angle
SciTegic.value.DoubleValue
2.988

@<SCITEGIC>MOL_PROPERTY
Pdih
SciTegic.value.DoubleValue
6.930

@<SCITEGIC>MOL_PROPERTY
Idih
SciTegic.value.DoubleValue
0.001

@<SCITEGIC>MOL_PROPERTY
Tether
SciTegic.value.DoubleValue
0.000

@<TRIPOS>MOLECULE
guest-s21_confgen4.mol2 : confsearch ligand conformer 453
          22          21           1
SMALL
USER_CHARGES
 
@<TRIPOS>ATOM
       1    C1      20.513370   18.910144   19.067320 C.2        1 MOL1         0.6145
       2    O1      19.475679   18.730270   18.461175 O.co2      1 MOL1        -0.6735
       3    O2      21.600206   18.993581   18.530280 O.co2      1 MOL1        -0.6735
       4    C2      20.451477   19.014094   20.586979 C.3        1 MOL1        -0.1985
       5    H1      19.501620   19.494262   20.847632 H          1 MOL1         0.0740
       6    H2      21.259433   19.678062   20.916577 H          1 MOL1         0.0740
       7    C3      20.569053   17.637222   21.288078 C.3        1 MOL1        -0.1882
       8    H3      19.708255   17.014512   21.007876 H          1 MOL1         0.0742
       9    H4      21.459672   17.121305   20.903305 H          1 MOL1         0.0742
      10    C4      20.674218   17.713449   22.832035 C.3        1 MOL1        -0.1880
      11    H5      21.587411   18.250951   23.122075 H          1 MOL1         0.0742
      12    H6      20.800451   16.688066   23.205666 H          1 MOL1         0.0742
      13    C5      19.439439   18.333870   23.533540 C.3        1 MOL1        -0.1880
      14    H7      18.538207   18.168496   22.927409 H          1 MOL1         0.0742
      15    H8      19.272851   17.801404   24.479966 H          1 MOL1         0.0742
      16    C6      19.606375   19.837770   23.851620 C.3        1 MOL1        -0.1856
      17    H9      19.804886   20.406779   22.935549 H          1 MOL1         0.0742
      18    H10     20.477911   19.980501   24.505262 H          1 MOL1         0.0742
      19    C7      18.353198   20.411925   24.542437 C.3        1 MOL1        -0.2871
      20    H11     17.469907   20.312425   23.898035 H          1 MOL1         0.0754
      21    H12     18.489809   21.477517   24.768012 H          1 MOL1         0.0754
      22    H13     18.150046   19.888972   25.486143 H          1 MOL1         0.0754
@<TRIPOS>BOND
    1     1     2    1
    2     1     3    2
    3     1     4    1
    4     4     5    1
    5     4     6    1
    6     4     7    1
    7     7     8    1
    8     7     9    1
    9     7    10    1
   10    10    11    1
   11    10    12    1
   12    10    13    1
   13    13    14    1
   14    13    15    1
   15    13    16    1
   16    16    17    1
   17    16    18    1
   18    16    19    1
   19    19    20    1
   20    19    21    1
   21    19    22    1
@<TRIPOS>SUBSTRUCTURE
       1 MOL1            1 RESIDUE      1      MOL     
@<SCITEGIC>MOL_PROPERTY
VConf Rank
SciTegic.value.IntegerValue
453

@<SCITEGIC>MOL_PROPERTY
Conf_Id
SciTegic.value.IntegerValue
6

@<SCITEGIC>MOL_PROPERTY
Delta U+W
SciTegic.value.DoubleValue
2.118

@<SCITEGIC>MOL_PROPERTY
U+W
SciTegic.value.DoubleValue
-51.042

@<SCITEGIC>MOL_PROPERTY
Grad RMS
SciTegic.value.DoubleValue
0.000000

@<SCITEGIC>MOL_PROPERTY
U
SciTegic.value.DoubleValue
10.045

@<SCITEGIC>MOL_PROPERTY
W
SciTegic.value.DoubleValue
-61.086

@<SCITEGIC>MOL_PROPERTY
W(PB)
SciTegic.value.DoubleValue
-63.356

@<SCITEGIC>MOL_PROPERTY
W(SA)
SciTegic.value.DoubleValue
2.270

@<SCITEGIC>MOL_PROPERTY
Valence
SciTegic.value.DoubleValue
10.100

@<SCITEGIC>MOL_PROPERTY
Coulomb
SciTegic.value.DoubleValue
-0.883

@<SCITEGIC>MOL_PROPERTY
VdW
SciTegic.value.DoubleValue
0.828

@<SCITEGIC>MOL_PROPERTY
VdW6
SciTegic.value.DoubleValue
-8.177

@<SCITEGIC>MOL_PROPERTY
VdW12
SciTegic.value.DoubleValue
9.004

@<SCITEGIC>MOL_PROPERTY
Bond
SciTegic.value.DoubleValue
0.182

@<SCITEGIC>MOL_PROPERTY
Angle
SciTegic.value.DoubleValue
2.988

@<SCITEGIC>MOL_PROPERTY
Pdih
SciTegic.value.DoubleValue
6.930

@<SCITEGIC>MOL_PROPERTY
Idih
SciTegic.value.DoubleValue
0.001

@<SCITEGIC>MOL_PROPERTY
Tether
SciTegic.value.DoubleValue
0.000

@<TRIPOS>MOLECULE
guest-s21_confgen4.mol2 : confsearch ligand conformer 454
          22          21           1
SMALL
USER_CHARGES
 
@<TRIPOS>ATOM
       1    C1      20.847799   18.990582   20.180933 C.2        1 MOL1         0.6145
       2    O1      20.766941   20.128197   19.760472 O.co2      1 MOL1        -0.6735
       3    O2      20.223935   18.057719   19.714438 O.co2      1 MOL1        -0.6735
       4    C2      21.837515   18.702801   21.308364 C.3        1 MOL1        -0.1985
       5    H1      22.833173   18.928552   20.909323 H          1 MOL1         0.0740
       6    H2      21.824197   17.628574   21.529051 H          1 MOL1         0.0740
       7    C3      21.616986   19.522808   22.610684 C.3        1 MOL1        -0.1882
       8    H3      22.556861   19.515369   23.179017 H          1 MOL1         0.0742
       9    H4      21.422673   20.575465   22.362230 H          1 MOL1         0.0742
      10    C4      20.500998   18.981231   23.538141 C.3        1 MOL1        -0.1880
      11    H5      20.542416   19.538426   24.484076 H          1 MOL1         0.0742
      12    H6      20.705918   17.931541   23.789116 H          1 MOL1         0.0742
      13    C5      19.077100   19.106364   22.950464 C.3        1 MOL1        -0.1880
      14    H7      18.909582   20.135726   22.604924 H          1 MOL1         0.0742
      15    H8      18.976166   18.452918   22.074745 H          1 MOL1         0.0742
      16    C6      17.997303   18.726134   23.985553 C.3        1 MOL1        -0.1856
      17    H9      18.080282   19.378760   24.865638 H          1 MOL1         0.0742
      18    H10     18.164592   17.697351   24.333451 H          1 MOL1         0.0742
      19    C7      16.578032   18.842814   23.394391 C.3        1 MOL1        -0.2871
      20    H11     16.372711   19.870288   23.066506 H          1 MOL1         0.0754
      21    H12     15.823162   18.568125   24.142550 H          1 MOL1         0.0754
      22    H13     16.457141   18.176785   22.529930 H          1 MOL1         0.0754
@<TRIPOS>BOND
    1     1     2    1
    2     1     3    2
    3     1     4    1
    4     4     5    1
    5     4     6    1
    6     4     7    1
    7     7     8    1
    8     7     9    1
    9     7    10    1
   10    10    11    1
   11    10    12    1
   12    10    13    1
   13    13    14    1
   14    13    15    1
   15    13    16    1
   16    16    17    1
   17    16    18    1
   18    16    19    1
   19    19    20    1
   20    19    21    1
   21    19    22    1
@<TRIPOS>SUBSTRUCTURE
       1 MOL1            1 RESIDUE      1      MOL     
@<SCITEGIC>MOL_PROPERTY
VConf Rank
SciTegic.value.IntegerValue
454

@<SCITEGIC>MOL_PROPERTY
Conf_Id
SciTegic.value.IntegerValue
8

@<SCITEGIC>MOL_PROPERTY
Delta U+W
SciTegic.value.DoubleValue
1.886

@<SCITEGIC>MOL_PROPERTY
U+W
SciTegic.value.DoubleValue
-51.274

@<SCITEGIC>MOL_PROPERTY
Grad RMS
SciTegic.value.DoubleValue
0.000000

@<SCITEGIC>MOL_PROPERTY
U
SciTegic.value.DoubleValue
11.237

@<SCITEGIC>MOL_PROPERTY
W
SciTegic.value.DoubleValue
-62.510

@<SCITEGIC>MOL_PROPERTY
W(PB)
SciTegic.value.DoubleValue
-64.777

@<SCITEGIC>MOL_PROPERTY
W(SA)
SciTegic.value.DoubleValue
2.267

@<SCITEGIC>MOL_PROPERTY
Valence
SciTegic.value.DoubleValue
9.029

@<SCITEGIC>MOL_PROPERTY
Coulomb
SciTegic.value.DoubleValue
1.667

@<SCITEGIC>MOL_PROPERTY
VdW
SciTegic.value.DoubleValue
0.540

@<SCITEGIC>MOL_PROPERTY
VdW6
SciTegic.value.DoubleValue
-8.825

@<SCITEGIC>MOL_PROPERTY
VdW12
SciTegic.value.DoubleValue
9.365

@<SCITEGIC>MOL_PROPERTY
Bond
SciTegic.value.DoubleValue
0.186

@<SCITEGIC>MOL_PROPERTY
Angle
SciTegic.value.DoubleValue
3.195

@<SCITEGIC>MOL_PROPERTY
Pdih
SciTegic.value.DoubleValue
5.642

@<SCITEGIC>MOL_PROPERTY
Idih
SciTegic.value.DoubleValue
0.007

@<SCITEGIC>MOL_PROPERTY
Tether
SciTegic.value.DoubleValue
0.000

@<TRIPOS>MOLECULE
guest-s21_confgen4.mol2 : confsearch ligand conformer 455
          22          21           1
SMALL
USER_CHARGES
 
@<TRIPOS>ATOM
       1    C1      22.024678   19.074464   24.461399 C.2        1 MOL1         0.6145
       2    O1      22.118665   20.269210   24.260124 O.co2      1 MOL1        -0.6735
       3    O2      22.976931   18.319408   24.481705 O.co2      1 MOL1        -0.6735
       4    C2      20.640093   18.493019   24.733450 C.3        1 MOL1        -0.1985
       5    H1      19.951201   19.315385   24.956724 H          1 MOL1         0.0740
       6    H2      20.712912   17.894104   25.648721 H          1 MOL1         0.0740
       7    C3      20.085579   17.607198   23.584110 C.3        1 MOL1        -0.1882
       8    H3      20.760922   16.751905   23.443715 H          1 MOL1         0.0742
       9    H4      19.117232   17.187187   23.887796 H          1 MOL1         0.0742
      10    C4      19.921506   18.337877   22.228411 C.3        1 MOL1        -0.1880
      11    H5      19.617824   17.596188   21.478966 H          1 MOL1         0.0742
      12    H6      20.892956   18.731195   21.899003 H          1 MOL1         0.0742
      13    C5      18.883279   19.485878   22.268685 C.3        1 MOL1        -0.1880
      14    H7      17.915329   19.100443   22.616543 H          1 MOL1         0.0742
      15    H8      19.203292   20.238170   23.001201 H          1 MOL1         0.0742
      16    C6      18.699217   20.195555   20.906892 C.3        1 MOL1        -0.1856
      17    H9      19.668941   20.568562   20.549291 H          1 MOL1         0.0742
      18    H10     18.062919   21.078994   21.054664 H          1 MOL1         0.0742
      19    C7      18.055792   19.297662   19.827723 C.3        1 MOL1        -0.2871
      20    H11     18.712839   18.462411   19.555705 H          1 MOL1         0.0754
      21    H12     17.859829   19.875613   18.915326 H          1 MOL1         0.0754
      22    H13     17.100566   18.885401   20.177985 H          1 MOL1         0.0754
@<TRIPOS>BOND
    1     1     2    1
    2     1     3    2
    3     1     4    1
    4     4     5    1
    5     4     6    1
    6     4     7    1
    7     7     8    1
    8     7     9    1
    9     7    10    1
   10    10    11    1
   11    10    12    1
   12    10    13    1
   13    13    14    1
   14    13    15    1
   15    13    16    1
   16    16    17    1
   17    16    18    1
   18    16    19    1
   19    19    20    1
   20    19    21    1
   21    19    22    1
@<TRIPOS>SUBSTRUCTURE
       1 MOL1            1 RESIDUE      1      MOL     
@<SCITEGIC>MOL_PROPERTY
VConf Rank
SciTegic.value.IntegerValue
455

@<SCITEGIC>MOL_PROPERTY
Conf_Id
SciTegic.value.IntegerValue
93

@<SCITEGIC>MOL_PROPERTY
Delta U+W
SciTegic.value.DoubleValue
1.836

@<SCITEGIC>MOL_PROPERTY
U+W
SciTegic.value.DoubleValue
-51.323

@<SCITEGIC>MOL_PROPERTY
Grad RMS
SciTegic.value.DoubleValue
0.000000

@<SCITEGIC>MOL_PROPERTY
U
SciTegic.value.DoubleValue
10.427

@<SCITEGIC>MOL_PROPERTY
W
SciTegic.value.DoubleValue
-61.751

@<SCITEGIC>MOL_PROPERTY
W(PB)
SciTegic.value.DoubleValue
-63.980

@<SCITEGIC>MOL_PROPERTY
W(SA)
SciTegic.value.DoubleValue
2.230

@<SCITEGIC>MOL_PROPERTY
Valence
SciTegic.value.DoubleValue
8.446

@<SCITEGIC>MOL_PROPERTY
Coulomb
SciTegic.value.DoubleValue
1.306

@<SCITEGIC>MOL_PROPERTY
VdW
SciTegic.value.DoubleValue
0.676

@<SCITEGIC>MOL_PROPERTY
VdW6
SciTegic.value.DoubleValue
-8.928

@<SCITEGIC>MOL_PROPERTY
VdW12
SciTegic.value.DoubleValue
9.604

@<SCITEGIC>MOL_PROPERTY
Bond
SciTegic.value.DoubleValue
0.209

@<SCITEGIC>MOL_PROPERTY
Angle
SciTegic.value.DoubleValue
3.066

@<SCITEGIC>MOL_PROPERTY
Pdih
SciTegic.value.DoubleValue
5.170

@<SCITEGIC>MOL_PROPERTY
Idih
SciTegic.value.DoubleValue
0.001

@<SCITEGIC>MOL_PROPERTY
Tether
SciTegic.value.DoubleValue
0.000

@<TRIPOS>MOLECULE
guest-s21_confgen4.mol2 : confsearch ligand conformer 456
          22          21           1
SMALL
USER_CHARGES
 
@<TRIPOS>ATOM
       1    C1      18.945505   17.841758   19.740359 C.2        1 MOL1         0.6145
       2    O1      18.654239   18.453686   18.731392 O.co2      1 MOL1        -0.6735
       3    O2      18.179488   17.096718   20.319063 O.co2      1 MOL1        -0.6735
       4    C2      20.360297   17.995834   20.291529 C.3        1 MOL1        -0.1985
       5    H1      21.053561   17.833976   19.457916 H          1 MOL1         0.0740
       6    H2      20.547487   17.189591   21.009611 H          1 MOL1         0.0740
       7    C3      20.645107   19.381541   20.933283 C.3        1 MOL1        -0.1882
       8    H3      21.696268   19.423409   21.248937 H          1 MOL1         0.0742
       9    H4      20.524574   20.155940   20.163149 H          1 MOL1         0.0742
      10    C4      19.736987   19.733490   22.137518 C.3        1 MOL1        -0.1880
      11    H5      18.684579   19.728969   21.822333 H          1 MOL1         0.0742
      12    H6      19.964005   20.762633   22.443006 H          1 MOL1         0.0742
      13    C5      19.920911   18.783714   23.346461 C.3        1 MOL1        -0.1880
      14    H7      19.668592   17.759161   23.043872 H          1 MOL1         0.0742
      15    H8      20.975806   18.770257   23.652256 H          1 MOL1         0.0742
      16    C6      19.034737   19.153949   24.558737 C.3        1 MOL1        -0.1856
      17    H9      19.116490   18.356291   25.309892 H          1 MOL1         0.0742
      18    H10     17.980119   19.183372   24.251662 H          1 MOL1         0.0742
      19    C7      19.423611   20.495392   25.217613 C.3        1 MOL1        -0.2871
      20    H11     19.242544   21.341702   24.543577 H          1 MOL1         0.0754
      21    H12     20.484065   20.500945   25.501349 H          1 MOL1         0.0754
      22    H13     18.830208   20.662483   26.125826 H          1 MOL1         0.0754
@<TRIPOS>BOND
    1     1     2    1
    2     1     3    2
    3     1     4    1
    4     4     5    1
    5     4     6    1
    6     4     7    1
    7     7     8    1
    8     7     9    1
    9     7    10    1
   10    10    11    1
   11    10    12    1
   12    10    13    1
   13    13    14    1
   14    13    15    1
   15    13    16    1
   16    16    17    1
   17    16    18    1
   18    16    19    1
   19    19    20    1
   20    19    21    1
   21    19    22    1
@<TRIPOS>SUBSTRUCTURE
       1 MOL1            1 RESIDUE      1      MOL     
@<SCITEGIC>MOL_PROPERTY
VConf Rank
SciTegic.value.IntegerValue
456

@<SCITEGIC>MOL_PROPERTY
Conf_Id
SciTegic.value.IntegerValue
70

@<SCITEGIC>MOL_PROPERTY
Delta U+W
SciTegic.value.DoubleValue
1.803

@<SCITEGIC>MOL_PROPERTY
U+W
SciTegic.value.DoubleValue
-51.356

@<SCITEGIC>MOL_PROPERTY
Grad RMS
SciTegic.value.DoubleValue
0.000000

@<SCITEGIC>MOL_PROPERTY
U
SciTegic.value.DoubleValue
10.428

@<SCITEGIC>MOL_PROPERTY
W
SciTegic.value.DoubleValue
-61.784

@<SCITEGIC>MOL_PROPERTY
W(PB)
SciTegic.value.DoubleValue
-64.014

@<SCITEGIC>MOL_PROPERTY
W(SA)
SciTegic.value.DoubleValue
2.230

@<SCITEGIC>MOL_PROPERTY
Valence
SciTegic.value.DoubleValue
8.445

@<SCITEGIC>MOL_PROPERTY
Coulomb
SciTegic.value.DoubleValue
1.306

@<SCITEGIC>MOL_PROPERTY
VdW
SciTegic.value.DoubleValue
0.676

@<SCITEGIC>MOL_PROPERTY
VdW6
SciTegic.value.DoubleValue
-8.929

@<SCITEGIC>MOL_PROPERTY
VdW12
SciTegic.value.DoubleValue
9.605

@<SCITEGIC>MOL_PROPERTY
Bond
SciTegic.value.DoubleValue
0.209

@<SCITEGIC>MOL_PROPERTY
Angle
SciTegic.value.DoubleValue
3.066

@<SCITEGIC>MOL_PROPERTY
Pdih
SciTegic.value.DoubleValue
5.170

@<SCITEGIC>MOL_PROPERTY
Idih
SciTegic.value.DoubleValue
0.001

@<SCITEGIC>MOL_PROPERTY
Tether
SciTegic.value.DoubleValue
0.000

@<TRIPOS>MOLECULE
guest-s21_confgen4.mol2 : confsearch ligand conformer 457
          22          21           1
SMALL
USER_CHARGES
 
@<TRIPOS>ATOM
       1    C1      19.964273   19.611044   19.121054 C.2        1 MOL1         0.6145
       2    O1      20.981268   20.270125   19.030250 O.co2      1 MOL1        -0.6735
       3    O2      18.883520   19.981913   18.707160 O.co2      1 MOL1        -0.6735
       4    C2      20.055815   18.233711   19.771954 C.3        1 MOL1        -0.1985
       5    H1      20.940339   17.733857   19.359885 H          1 MOL1         0.0740
       6    H2      19.184976   17.642373   19.464058 H          1 MOL1         0.0740
       7    C3      20.157221   18.273920   21.318913 C.3        1 MOL1        -0.1882
       8    H3      20.350214   17.258495   21.690306 H          1 MOL1         0.0742
       9    H4      21.023388   18.886242   21.602543 H          1 MOL1         0.0742
      10    C4      18.872214   18.824817   21.982114 C.3        1 MOL1        -0.1880
      11    H5      18.008511   18.253006   21.616204 H          1 MOL1         0.0742
      12    H6      18.708197   19.865658   21.670580 H          1 MOL1         0.0742
      13    C5      18.894244   18.746761   23.527089 C.3        1 MOL1        -0.1880
      14    H7      17.904997   19.039949   23.904345 H          1 MOL1         0.0742
      15    H8      19.050322   17.705686   23.841204 H          1 MOL1         0.0742
      16    C6      19.966234   19.652646   24.173911 C.3        1 MOL1        -0.1856
      17    H9      19.842600   20.684859   23.818212 H          1 MOL1         0.0742
      18    H10     20.969876   19.327165   23.870392 H          1 MOL1         0.0742
      19    C7      19.874700   19.626709   25.712963 C.3        1 MOL1        -0.2871
      20    H11     18.894400   19.983862   26.054731 H          1 MOL1         0.0754
      21    H12     20.643839   20.271915   26.157027 H          1 MOL1         0.0754
      22    H13     20.022303   18.609087   26.097710 H          1 MOL1         0.0754
@<TRIPOS>BOND
    1     1     2    1
    2     1     3    2
    3     1     4    1
    4     4     5    1
    5     4     6    1
    6     4     7    1
    7     7     8    1
    8     7     9    1
    9     7    10    1
   10    10    11    1
   11    10    12    1
   12    10    13    1
   13    13    14    1
   14    13    15    1
   15    13    16    1
   16    16    17    1
   17    16    18    1
   18    16    19    1
   19    19    20    1
   20    19    21    1
   21    19    22    1
@<TRIPOS>SUBSTRUCTURE
       1 MOL1            1 RESIDUE      1      MOL     
@<SCITEGIC>MOL_PROPERTY
VConf Rank
SciTegic.value.IntegerValue
457

@<SCITEGIC>MOL_PROPERTY
Conf_Id
SciTegic.value.IntegerValue
85

@<SCITEGIC>MOL_PROPERTY
Delta U+W
SciTegic.value.DoubleValue
0.707

@<SCITEGIC>MOL_PROPERTY
U+W
SciTegic.value.DoubleValue
-52.452

@<SCITEGIC>MOL_PROPERTY
Grad RMS
SciTegic.value.DoubleValue
0.000000

@<SCITEGIC>MOL_PROPERTY
U
SciTegic.value.DoubleValue
8.925

@<SCITEGIC>MOL_PROPERTY
W
SciTegic.value.DoubleValue
-61.378

@<SCITEGIC>MOL_PROPERTY
W(PB)
SciTegic.value.DoubleValue
-63.661

@<SCITEGIC>MOL_PROPERTY
W(SA)
SciTegic.value.DoubleValue
2.283

@<SCITEGIC>MOL_PROPERTY
Valence
SciTegic.value.DoubleValue
7.881

@<SCITEGIC>MOL_PROPERTY
Coulomb
SciTegic.value.DoubleValue
0.349

@<SCITEGIC>MOL_PROPERTY
VdW
SciTegic.value.DoubleValue
0.695

@<SCITEGIC>MOL_PROPERTY
VdW6
SciTegic.value.DoubleValue
-8.049

@<SCITEGIC>MOL_PROPERTY
VdW12
SciTegic.value.DoubleValue
8.743

@<SCITEGIC>MOL_PROPERTY
Bond
SciTegic.value.DoubleValue
0.156

@<SCITEGIC>MOL_PROPERTY
Angle
SciTegic.value.DoubleValue
2.660

@<SCITEGIC>MOL_PROPERTY
Pdih
SciTegic.value.DoubleValue
5.064

@<SCITEGIC>MOL_PROPERTY
Idih
SciTegic.value.DoubleValue
0.001

@<SCITEGIC>MOL_PROPERTY
Tether
SciTegic.value.DoubleValue
0.000

@<TRIPOS>MOLECULE
guest-s21_confgen4.mol2 : confsearch ligand conformer 458
          22          21           1
SMALL
USER_CHARGES
 
@<TRIPOS>ATOM
       1    C1      19.316251   18.597509   19.102391 C.2        1 MOL1         0.6145
       2    O1      18.240275   19.054413   18.770045 O.co2      1 MOL1        -0.6735
       3    O2      20.356345   18.836354   18.520900 O.co2      1 MOL1        -0.6735
       4    C2      19.362523   17.653741   20.300955 C.3        1 MOL1        -0.1985
       5    H1      19.974743   16.790796   20.013724 H          1 MOL1         0.0740
       6    H2      18.350276   17.276090   20.489607 H          1 MOL1         0.0740
       7    C3      19.943740   18.293945   21.588594 C.3        1 MOL1        -0.1882
       8    H3      20.080552   17.502671   22.336307 H          1 MOL1         0.0742
       9    H4      20.937787   18.709527   21.373096 H          1 MOL1         0.0742
      10    C4      19.027841   19.395109   22.171390 C.3        1 MOL1        -0.1880
      11    H5      18.065748   18.952608   22.463400 H          1 MOL1         0.0742
      12    H6      18.801650   20.129239   21.386067 H          1 MOL1         0.0742
      13    C5      19.633869   20.153548   23.378877 C.3        1 MOL1        -0.1880
      14    H7      20.549731   20.677573   23.073062 H          1 MOL1         0.0742
      15    H8      18.922155   20.939936   23.665098 H          1 MOL1         0.0742
      16    C6      19.908432   19.275764   24.625477 C.3        1 MOL1        -0.1856
      17    H9      19.220651   18.419215   24.647667 H          1 MOL1         0.0742
      18    H10     19.689427   19.866315   25.525801 H          1 MOL1         0.0742
      19    C7      21.372309   18.790453   24.718050 C.3        1 MOL1        -0.2871
      20    H11     21.655358   18.178795   23.853954 H          1 MOL1         0.0754
      21    H12     21.519129   18.183592   25.620813 H          1 MOL1         0.0754
      22    H13     22.062927   19.642154   24.770372 H          1 MOL1         0.0754
@<TRIPOS>BOND
    1     1     2    1
    2     1     3    2
    3     1     4    1
    4     4     5    1
    5     4     6    1
    6     4     7    1
    7     7     8    1
    8     7     9    1
    9     7    10    1
   10    10    11    1
   11    10    12    1
   12    10    13    1
   13    13    14    1
   14    13    15    1
   15    13    16    1
   16    16    17    1
   17    16    18    1
   18    16    19    1
   19    19    20    1
   20    19    21    1
   21    19    22    1
@<TRIPOS>SUBSTRUCTURE
       1 MOL1            1 RESIDUE      1      MOL     
@<SCITEGIC>MOL_PROPERTY
VConf Rank
SciTegic.value.IntegerValue
458

@<SCITEGIC>MOL_PROPERTY
Conf_Id
SciTegic.value.IntegerValue
82

@<SCITEGIC>MOL_PROPERTY
Delta U+W
SciTegic.value.DoubleValue
3.438

@<SCITEGIC>MOL_PROPERTY
U+W
SciTegic.value.DoubleValue
-49.721

@<SCITEGIC>MOL_PROPERTY
Grad RMS
SciTegic.value.DoubleValue
0.000000

@<SCITEGIC>MOL_PROPERTY
U
SciTegic.value.DoubleValue
11.773

@<SCITEGIC>MOL_PROPERTY
W
SciTegic.value.DoubleValue
-61.495

@<SCITEGIC>MOL_PROPERTY
W(PB)
SciTegic.value.DoubleValue
-63.749

@<SCITEGIC>MOL_PROPERTY
W(SA)
SciTegic.value.DoubleValue
2.254

@<SCITEGIC>MOL_PROPERTY
Valence
SciTegic.value.DoubleValue
10.419

@<SCITEGIC>MOL_PROPERTY
Coulomb
SciTegic.value.DoubleValue
0.565

@<SCITEGIC>MOL_PROPERTY
VdW
SciTegic.value.DoubleValue
0.789

@<SCITEGIC>MOL_PROPERTY
VdW6
SciTegic.value.DoubleValue
-8.847

@<SCITEGIC>MOL_PROPERTY
VdW12
SciTegic.value.DoubleValue
9.636

@<SCITEGIC>MOL_PROPERTY
Bond
SciTegic.value.DoubleValue
0.200

@<SCITEGIC>MOL_PROPERTY
Angle
SciTegic.value.DoubleValue
3.187

@<SCITEGIC>MOL_PROPERTY
Pdih
SciTegic.value.DoubleValue
7.032

@<SCITEGIC>MOL_PROPERTY
Idih
SciTegic.value.DoubleValue
0.001

@<SCITEGIC>MOL_PROPERTY
Tether
SciTegic.value.DoubleValue
0.000

@<TRIPOS>MOLECULE
guest-s21_confgen4.mol2 : confsearch ligand conformer 459
          22          21           1
SMALL
USER_CHARGES
 
@<TRIPOS>ATOM
       1    C1      23.044481   17.748262   22.651739 C.2        1 MOL1         0.6145
       2    O1      23.754097   18.655176   23.040230 O.co2      1 MOL1        -0.6735
       3    O2      23.085068   16.621578   23.105474 O.co2      1 MOL1        -0.6735
       4    C2      22.066054   18.036238   21.516332 C.3        1 MOL1        -0.1985
       5    H1      21.766230   17.084363   21.061475 H          1 MOL1         0.0740
       6    H2      22.612435   18.596615   20.748584 H          1 MOL1         0.0740
       7    C3      20.812815   18.840841   21.949574 C.3        1 MOL1        -0.1882
       8    H3      21.128357   19.769154   22.445505 H          1 MOL1         0.0742
       9    H4      20.258953   19.129701   21.047520 H          1 MOL1         0.0742
      10    C4      19.881934   18.034594   22.884725 C.3        1 MOL1        -0.1880
      11    H5      20.466068   17.651777   23.732710 H          1 MOL1         0.0742
      12    H6      19.503225   17.152596   22.350535 H          1 MOL1         0.0742
      13    C5      18.689260   18.846435   23.449499 C.3        1 MOL1        -0.1880
      14    H7      18.139458   18.189408   24.137175 H          1 MOL1         0.0742
      15    H8      19.058032   19.679110   24.063980 H          1 MOL1         0.0742
      16    C6      17.694398   19.366572   22.381976 C.3        1 MOL1        -0.1856
      17    H9      16.677319   19.312908   22.794249 H          1 MOL1         0.0742
      18    H10     17.701791   18.709329   21.501528 H          1 MOL1         0.0742
      19    C7      17.961887   20.829021   21.961598 C.3        1 MOL1        -0.2871
      20    H11     17.883877   21.503262   22.824384 H          1 MOL1         0.0754
      21    H12     17.226661   21.154161   21.214239 H          1 MOL1         0.0754
      22    H13     18.959568   20.952780   21.525456 H          1 MOL1         0.0754
@<TRIPOS>BOND
    1     1     2    1
    2     1     3    2
    3     1     4    1
    4     4     5    1
    5     4     6    1
    6     4     7    1
    7     7     8    1
    8     7     9    1
    9     7    10    1
   10    10    11    1
   11    10    12    1
   12    10    13    1
   13    13    14    1
   14    13    15    1
   15    13    16    1
   16    16    17    1
   17    16    18    1
   18    16    19    1
   19    19    20    1
   20    19    21    1
   21    19    22    1
@<TRIPOS>SUBSTRUCTURE
       1 MOL1            1 RESIDUE      1      MOL     
@<SCITEGIC>MOL_PROPERTY
VConf Rank
SciTegic.value.IntegerValue
459

@<SCITEGIC>MOL_PROPERTY
Conf_Id
SciTegic.value.IntegerValue
94

@<SCITEGIC>MOL_PROPERTY
Delta U+W
SciTegic.value.DoubleValue
3.471

@<SCITEGIC>MOL_PROPERTY
U+W
SciTegic.value.DoubleValue
-49.688

@<SCITEGIC>MOL_PROPERTY
Grad RMS
SciTegic.value.DoubleValue
0.000000

@<SCITEGIC>MOL_PROPERTY
U
SciTegic.value.DoubleValue
11.773

@<SCITEGIC>MOL_PROPERTY
W
SciTegic.value.DoubleValue
-61.461

@<SCITEGIC>MOL_PROPERTY
W(PB)
SciTegic.value.DoubleValue
-63.710

@<SCITEGIC>MOL_PROPERTY
W(SA)
SciTegic.value.DoubleValue
2.248

@<SCITEGIC>MOL_PROPERTY
Valence
SciTegic.value.DoubleValue
10.419

@<SCITEGIC>MOL_PROPERTY
Coulomb
SciTegic.value.DoubleValue
0.566

@<SCITEGIC>MOL_PROPERTY
VdW
SciTegic.value.DoubleValue
0.789

@<SCITEGIC>MOL_PROPERTY
VdW6
SciTegic.value.DoubleValue
-8.847

@<SCITEGIC>MOL_PROPERTY
VdW12
SciTegic.value.DoubleValue
9.636

@<SCITEGIC>MOL_PROPERTY
Bond
SciTegic.value.DoubleValue
0.200

@<SCITEGIC>MOL_PROPERTY
Angle
SciTegic.value.DoubleValue
3.187

@<SCITEGIC>MOL_PROPERTY
Pdih
SciTegic.value.DoubleValue
7.032

@<SCITEGIC>MOL_PROPERTY
Idih
SciTegic.value.DoubleValue
0.001

@<SCITEGIC>MOL_PROPERTY
Tether
SciTegic.value.DoubleValue
0.000

@<TRIPOS>MOLECULE
guest-s21_confgen4.mol2 : confsearch ligand conformer 460
          22          21           1
SMALL
USER_CHARGES
 
@<TRIPOS>ATOM
       1    C1      16.732577   17.945545   21.879190 C.2        1 MOL1         0.6145
       2    O1      15.819074   17.712010   22.645788 O.co2      1 MOL1        -0.6735
       3    O2      16.892854   17.361043   20.825984 O.co2      1 MOL1        -0.6735
       4    C2      17.743711   19.017467   22.269734 C.3        1 MOL1        -0.1985
       5    H1      17.219333   19.785696   22.850325 H          1 MOL1         0.0740
       6    H2      18.099895   19.491828   21.348242 H          1 MOL1         0.0740
       7    C3      18.934569   18.450569   23.085171 C.3        1 MOL1        -0.1882
       8    H3      18.540235   17.911444   23.957492 H          1 MOL1         0.0742
       9    H4      19.469868   17.704106   22.483444 H          1 MOL1         0.0742
      10    C4      19.918452   19.539823   23.581072 C.3        1 MOL1        -0.1880
      11    H5      20.697822   19.063520   24.190327 H          1 MOL1         0.0742
      12    H6      19.383675   20.217750   24.260023 H          1 MOL1         0.0742
      13    C5      20.586649   20.384155   22.464030 C.3        1 MOL1        -0.1880
      14    H7      19.822098   20.988329   21.958376 H          1 MOL1         0.0742
      15    H8      21.271426   21.104238   22.932118 H          1 MOL1         0.0742
      16    C6      21.367615   19.571837   21.401881 C.3        1 MOL1        -0.1856
      17    H9      21.770434   20.268849   20.654338 H          1 MOL1         0.0742
      18    H10     20.684935   18.904915   20.858590 H          1 MOL1         0.0742
      19    C7      22.533448   18.752638   21.996483 C.3        1 MOL1        -0.2871
      20    H11     23.220525   19.398292   22.558630 H          1 MOL1         0.0754
      21    H12     23.105562   18.262934   21.197971 H          1 MOL1         0.0754
      22    H13     22.166405   17.969379   22.671569 H          1 MOL1         0.0754
@<TRIPOS>BOND
    1     1     2    1
    2     1     3    2
    3     1     4    1
    4     4     5    1
    5     4     6    1
    6     4     7    1
    7     7     8    1
    8     7     9    1
    9     7    10    1
   10    10    11    1
   11    10    12    1
   12    10    13    1
   13    13    14    1
   14    13    15    1
   15    13    16    1
   16    16    17    1
   17    16    18    1
   18    16    19    1
   19    19    20    1
   20    19    21    1
   21    19    22    1
@<TRIPOS>SUBSTRUCTURE
       1 MOL1            1 RESIDUE      1      MOL     
@<SCITEGIC>MOL_PROPERTY
VConf Rank
SciTegic.value.IntegerValue
460

@<SCITEGIC>MOL_PROPERTY
Conf_Id
SciTegic.value.IntegerValue
56

@<SCITEGIC>MOL_PROPERTY
Delta U+W
SciTegic.value.DoubleValue
0.853

@<SCITEGIC>MOL_PROPERTY
U+W
SciTegic.value.DoubleValue
-52.307

@<SCITEGIC>MOL_PROPERTY
Grad RMS
SciTegic.value.DoubleValue
0.000000

@<SCITEGIC>MOL_PROPERTY
U
SciTegic.value.DoubleValue
8.874

@<SCITEGIC>MOL_PROPERTY
W
SciTegic.value.DoubleValue
-61.181

@<SCITEGIC>MOL_PROPERTY
W(PB)
SciTegic.value.DoubleValue
-63.413

@<SCITEGIC>MOL_PROPERTY
W(SA)
SciTegic.value.DoubleValue
2.232

@<SCITEGIC>MOL_PROPERTY
Valence
SciTegic.value.DoubleValue
8.479

@<SCITEGIC>MOL_PROPERTY
Coulomb
SciTegic.value.DoubleValue
-0.357

@<SCITEGIC>MOL_PROPERTY
VdW
SciTegic.value.DoubleValue
0.753

@<SCITEGIC>MOL_PROPERTY
VdW6
SciTegic.value.DoubleValue
-9.081

@<SCITEGIC>MOL_PROPERTY
VdW12
SciTegic.value.DoubleValue
9.833

@<SCITEGIC>MOL_PROPERTY
Bond
SciTegic.value.DoubleValue
0.221

@<SCITEGIC>MOL_PROPERTY
Angle
SciTegic.value.DoubleValue
3.208

@<SCITEGIC>MOL_PROPERTY
Pdih
SciTegic.value.DoubleValue
5.050

@<SCITEGIC>MOL_PROPERTY
Idih
SciTegic.value.DoubleValue
0.000

@<SCITEGIC>MOL_PROPERTY
Tether
SciTegic.value.DoubleValue
0.000

@<TRIPOS>MOLECULE
guest-s21_confgen4.mol2 : confsearch ligand conformer 461
          22          21           1
SMALL
USER_CHARGES
 
@<TRIPOS>ATOM
       1    C1      22.487963   16.371515   20.514116 C.2        1 MOL1         0.6145
       2    O1      22.074140   15.429390   21.161845 O.co2      1 MOL1        -0.6735
       3    O2      23.401610   16.279499   19.718689 O.co2      1 MOL1        -0.6735
       4    C2      21.848966   17.750429   20.686758 C.3        1 MOL1        -0.1985
       5    H1      21.492413   18.071324   19.700926 H          1 MOL1         0.0740
       6    H2      22.644387   18.444769   20.981997 H          1 MOL1         0.0740
       7    C3      20.686326   17.818177   21.712470 C.3        1 MOL1        -0.1882
       8    H3      19.895709   17.115725   21.414182 H          1 MOL1         0.0742
       9    H4      21.048759   17.489690   22.696455 H          1 MOL1         0.0742
      10    C4      20.100789   19.242720   21.823541 C.3        1 MOL1        -0.1880
      11    H5      19.739149   19.568918   20.838684 H          1 MOL1         0.0742
      12    H6      20.893010   19.943162   22.121698 H          1 MOL1         0.0742
      13    C5      18.944538   19.307891   22.844395 C.3        1 MOL1        -0.1880
      14    H7      18.152066   18.607547   22.546682 H          1 MOL1         0.0742
      15    H8      19.305726   18.981801   23.829452 H          1 MOL1         0.0742
      16    C6      18.358888   20.731159   22.955852 C.3        1 MOL1        -0.1856
      17    H9      17.994632   21.060002   21.972666 H          1 MOL1         0.0742
      18    H10     19.148391   21.434304   23.255433 H          1 MOL1         0.0742
      19    C7      17.204615   20.792005   23.976287 C.3        1 MOL1        -0.2871
      20    H11     16.386325   20.120824   23.684181 H          1 MOL1         0.0754
      21    H12     16.800267   21.810424   24.042751 H          1 MOL1         0.0754
      22    H13     17.548739   20.498001   24.976561 H          1 MOL1         0.0754
@<TRIPOS>BOND
    1     1     2    1
    2     1     3    2
    3     1     4    1
    4     4     5    1
    5     4     6    1
    6     4     7    1
    7     7     8    1
    8     7     9    1
    9     7    10    1
   10    10    11    1
   11    10    12    1
   12    10    13    1
   13    13    14    1
   14    13    15    1
   15    13    16    1
   16    16    17    1
   17    16    18    1
   18    16    19    1
   19    19    20    1
   20    19    21    1
   21    19    22    1
@<TRIPOS>SUBSTRUCTURE
       1 MOL1            1 RESIDUE      1      MOL     
@<SCITEGIC>MOL_PROPERTY
VConf Rank
SciTegic.value.IntegerValue
461

@<SCITEGIC>MOL_PROPERTY
Conf_Id
SciTegic.value.IntegerValue
0

@<SCITEGIC>MOL_PROPERTY
Delta U+W
SciTegic.value.DoubleValue
0.000

@<SCITEGIC>MOL_PROPERTY
U+W
SciTegic.value.DoubleValue
-53.159

@<SCITEGIC>MOL_PROPERTY
Grad RMS
SciTegic.value.DoubleValue
0.000000

@<SCITEGIC>MOL_PROPERTY
U
SciTegic.value.DoubleValue
6.763

@<SCITEGIC>MOL_PROPERTY
W
SciTegic.value.DoubleValue
-59.922

@<SCITEGIC>MOL_PROPERTY
W(PB)
SciTegic.value.DoubleValue
-62.256

@<SCITEGIC>MOL_PROPERTY
W(SA)
SciTegic.value.DoubleValue
2.334

@<SCITEGIC>MOL_PROPERTY
Valence
SciTegic.value.DoubleValue
7.600

@<SCITEGIC>MOL_PROPERTY
Coulomb
SciTegic.value.DoubleValue
-2.139

@<SCITEGIC>MOL_PROPERTY
VdW
SciTegic.value.DoubleValue
1.302

@<SCITEGIC>MOL_PROPERTY
VdW6
SciTegic.value.DoubleValue
-6.786

@<SCITEGIC>MOL_PROPERTY
VdW12
SciTegic.value.DoubleValue
8.088

@<SCITEGIC>MOL_PROPERTY
Bond
SciTegic.value.DoubleValue
0.134

@<SCITEGIC>MOL_PROPERTY
Angle
SciTegic.value.DoubleValue
2.720

@<SCITEGIC>MOL_PROPERTY
Pdih
SciTegic.value.DoubleValue
4.746

@<SCITEGIC>MOL_PROPERTY
Idih
SciTegic.value.DoubleValue
0.000

@<SCITEGIC>MOL_PROPERTY
Tether
SciTegic.value.DoubleValue
0.000

@<TRIPOS>MOLECULE
guest-s21_confgen4.mol2 : confsearch ligand conformer 462
          22          21           1
SMALL
USER_CHARGES
 
@<TRIPOS>ATOM
       1    C1      20.679684   19.115419   26.090541 C.2        1 MOL1         0.6145
       2    O1      20.444788   18.086016   26.691860 O.co2      1 MOL1        -0.6735
       3    O2      20.585376   20.220864   26.586048 O.co2      1 MOL1        -0.6735
       4    C2      21.094048   19.015582   24.626796 C.3        1 MOL1        -0.1985
       5    H1      21.660931   18.085988   24.495792 H          1 MOL1         0.0740
       6    H2      21.777116   19.845348   24.408693 H          1 MOL1         0.0740
       7    C3      19.887628   19.047213   23.656436 C.3        1 MOL1        -0.1882
       8    H3      19.207143   18.218383   23.896340 H          1 MOL1         0.0742
       9    H4      19.323324   19.977689   23.809242 H          1 MOL1         0.0742
      10    C4      20.333243   18.944774   22.181711 C.3        1 MOL1        -0.1880
      11    H5      20.898063   18.014216   22.032668 H          1 MOL1         0.0742
      12    H6      21.014315   19.773957   21.945557 H          1 MOL1         0.0742
      13    C5      19.128580   18.976591   21.216793 C.3        1 MOL1        -0.1880
      14    H7      18.447255   18.147555   21.452632 H          1 MOL1         0.0742
      15    H8      18.563483   19.907004   21.365533 H          1 MOL1         0.0742
      16    C6      19.573133   18.874247   19.742694 C.3        1 MOL1        -0.1856
      17    H9      20.137102   17.943684   19.589503 H          1 MOL1         0.0742
      18    H10     20.253347   19.703128   19.502400 H          1 MOL1         0.0742
      19    C7      18.367304   18.906368   18.782337 C.3        1 MOL1        -0.2871
      20    H11     17.802617   19.841519   18.892010 H          1 MOL1         0.0754
      21    H12     17.685406   18.068877   18.979897 H          1 MOL1         0.0754
      22    H13     18.701393   18.832560   17.739250 H          1 MOL1         0.0754
@<TRIPOS>BOND
    1     1     2    1
    2     1     3    2
    3     1     4    1
    4     4     5    1
    5     4     6    1
    6     4     7    1
    7     7     8    1
    8     7     9    1
    9     7    10    1
   10    10    11    1
   11    10    12    1
   12    10    13    1
   13    13    14    1
   14    13    15    1
   15    13    16    1
   16    16    17    1
   17    16    18    1
   18    16    19    1
   19    19    20    1
   20    19    21    1
   21    19    22    1
@<TRIPOS>SUBSTRUCTURE
       1 MOL1            1 RESIDUE      1      MOL     
@<SCITEGIC>MOL_PROPERTY
VConf Rank
SciTegic.value.IntegerValue
462

@<SCITEGIC>MOL_PROPERTY
Conf_Id
SciTegic.value.IntegerValue
10

@<SCITEGIC>MOL_PROPERTY
Delta U+W
SciTegic.value.DoubleValue
-1.291

@<SCITEGIC>MOL_PROPERTY
U+W
SciTegic.value.DoubleValue
-54.451

@<SCITEGIC>MOL_PROPERTY
Grad RMS
SciTegic.value.DoubleValue
0.000000

@<SCITEGIC>MOL_PROPERTY
U
SciTegic.value.DoubleValue
5.779

@<SCITEGIC>MOL_PROPERTY
W
SciTegic.value.DoubleValue
-60.230

@<SCITEGIC>MOL_PROPERTY
W(PB)
SciTegic.value.DoubleValue
-62.557

@<SCITEGIC>MOL_PROPERTY
W(SA)
SciTegic.value.DoubleValue
2.328

@<SCITEGIC>MOL_PROPERTY
Valence
SciTegic.value.DoubleValue
7.101

@<SCITEGIC>MOL_PROPERTY
Coulomb
SciTegic.value.DoubleValue
-2.079

@<SCITEGIC>MOL_PROPERTY
VdW
SciTegic.value.DoubleValue
0.757

@<SCITEGIC>MOL_PROPERTY
VdW6
SciTegic.value.DoubleValue
-6.496

@<SCITEGIC>MOL_PROPERTY
VdW12
SciTegic.value.DoubleValue
7.253

@<SCITEGIC>MOL_PROPERTY
Bond
SciTegic.value.DoubleValue
0.100

@<SCITEGIC>MOL_PROPERTY
Angle
SciTegic.value.DoubleValue
2.262

@<SCITEGIC>MOL_PROPERTY
Pdih
SciTegic.value.DoubleValue
4.738

@<SCITEGIC>MOL_PROPERTY
Idih
SciTegic.value.DoubleValue
0.001

@<SCITEGIC>MOL_PROPERTY
Tether
SciTegic.value.DoubleValue
0.000

@<TRIPOS>MOLECULE
guest-s21_confgen4.mol2 : confsearch ligand conformer 463
          22          21           1
SMALL
USER_CHARGES
 
@<TRIPOS>ATOM
       1    C1      23.494435   19.654945   20.960227 C.2        1 MOL1         0.6145
       2    O1      23.615925   20.769595   20.491988 O.co2      1 MOL1        -0.6735
       3    O2      24.409294   19.032439   21.462199 O.co2      1 MOL1        -0.6735
       4    C2      22.113140   19.010260   20.935476 C.3        1 MOL1        -0.1985
       5    H1      22.244762   17.926210   20.834698 H          1 MOL1         0.0740
       6    H2      21.590703   19.358389   20.036297 H          1 MOL1         0.0740
       7    C3      21.276181   19.331844   22.198106 C.3        1 MOL1        -0.1882
       8    H3      21.819094   18.989132   23.089905 H          1 MOL1         0.0742
       9    H4      21.164088   20.420992   22.291613 H          1 MOL1         0.0742
      10    C4      19.882898   18.668018   22.148704 C.3        1 MOL1        -0.1880
      11    H5      19.998061   17.579327   22.057350 H          1 MOL1         0.0742
      12    H6      19.352398   19.011487   21.251060 H          1 MOL1         0.0742
      13    C5      19.050059   18.995075   23.409527 C.3        1 MOL1        -0.1880
      14    H7      19.624765   18.710004   24.301368 H          1 MOL1         0.0742
      15    H8      18.889799   20.079875   23.476318 H          1 MOL1         0.0742
      16    C6      17.686205   18.267431   23.451270 C.3        1 MOL1        -0.1856
      17    H9      17.214149   18.459155   24.424738 H          1 MOL1         0.0742
      18    H10     17.842881   17.181552   23.391021 H          1 MOL1         0.0742
      19    C7      16.719708   18.715618   22.333584 C.3        1 MOL1        -0.2871
      20    H11     15.739420   18.238064   22.459671 H          1 MOL1         0.0754
      21    H12     17.098311   18.439144   21.341654 H          1 MOL1         0.0754
      22    H13     16.571147   19.803090   22.355279 H          1 MOL1         0.0754
@<TRIPOS>BOND
    1     1     2    1
    2     1     3    2
    3     1     4    1
    4     4     5    1
    5     4     6    1
    6     4     7    1
    7     7     8    1
    8     7     9    1
    9     7    10    1
   10    10    11    1
   11    10    12    1
   12    10    13    1
   13    13    14    1
   14    13    15    1
   15    13    16    1
   16    16    17    1
   17    16    18    1
   18    16    19    1
   19    19    20    1
   20    19    21    1
   21    19    22    1
@<TRIPOS>SUBSTRUCTURE
       1 MOL1            1 RESIDUE      1      MOL     
@<SCITEGIC>MOL_PROPERTY
VConf Rank
SciTegic.value.IntegerValue
463

@<SCITEGIC>MOL_PROPERTY
Conf_Id
SciTegic.value.IntegerValue
37

@<SCITEGIC>MOL_PROPERTY
Delta U+W
SciTegic.value.DoubleValue
-0.345

@<SCITEGIC>MOL_PROPERTY
U+W
SciTegic.value.DoubleValue
-53.504

@<SCITEGIC>MOL_PROPERTY
Grad RMS
SciTegic.value.DoubleValue
0.000000

@<SCITEGIC>MOL_PROPERTY
U
SciTegic.value.DoubleValue
6.751

@<SCITEGIC>MOL_PROPERTY
W
SciTegic.value.DoubleValue
-60.255

@<SCITEGIC>MOL_PROPERTY
W(PB)
SciTegic.value.DoubleValue
-62.592

@<SCITEGIC>MOL_PROPERTY
W(SA)
SciTegic.value.DoubleValue
2.336

@<SCITEGIC>MOL_PROPERTY
Valence
SciTegic.value.DoubleValue
7.602

@<SCITEGIC>MOL_PROPERTY
Coulomb
SciTegic.value.DoubleValue
-1.744

@<SCITEGIC>MOL_PROPERTY
VdW
SciTegic.value.DoubleValue
0.894

@<SCITEGIC>MOL_PROPERTY
VdW6
SciTegic.value.DoubleValue
-7.110

@<SCITEGIC>MOL_PROPERTY
VdW12
SciTegic.value.DoubleValue
8.004

@<SCITEGIC>MOL_PROPERTY
Bond
SciTegic.value.DoubleValue
0.131

@<SCITEGIC>MOL_PROPERTY
Angle
SciTegic.value.DoubleValue
2.489

@<SCITEGIC>MOL_PROPERTY
Pdih
SciTegic.value.DoubleValue
4.982

@<SCITEGIC>MOL_PROPERTY
Idih
SciTegic.value.DoubleValue
0.001

@<SCITEGIC>MOL_PROPERTY
Tether
SciTegic.value.DoubleValue
0.000

@<TRIPOS>MOLECULE
guest-s21_confgen4.mol2 : confsearch ligand conformer 464
          22          21           1
SMALL
USER_CHARGES
 
@<TRIPOS>ATOM
       1    C1      20.667413   15.557946   23.799588 C.2        1 MOL1         0.6145
       2    O1      19.909260   15.251059   24.698185 O.co2      1 MOL1        -0.6735
       3    O2      21.814850   15.165429   23.723588 O.co2      1 MOL1        -0.6735
       4    C2      20.157502   16.505173   22.719327 C.3        1 MOL1        -0.1985
       5    H1      19.085760   16.318573   22.580742 H          1 MOL1         0.0740
       6    H2      20.655948   16.247444   21.777109 H          1 MOL1         0.0740
       7    C3      20.400548   17.995657   23.062171 C.3        1 MOL1        -0.1882
       8    H3      19.905768   18.234577   24.013832 H          1 MOL1         0.0742
       9    H4      21.476401   18.162639   23.211060 H          1 MOL1         0.0742
      10    C4      19.875835   18.933573   21.953414 C.3        1 MOL1        -0.1880
      11    H5      18.802719   18.753502   21.807940 H          1 MOL1         0.0742
      12    H6      20.373731   18.693948   21.003923 H          1 MOL1         0.0742
      13    C5      20.117333   20.420280   22.302188 C.3        1 MOL1        -0.1880
      14    H7      19.578652   20.676402   23.224772 H          1 MOL1         0.0742
      15    H8      21.185059   20.568862   22.513899 H          1 MOL1         0.0742
      16    C6      19.700924   21.392034   21.173645 C.3        1 MOL1        -0.1856
      17    H9      20.242636   21.142943   20.250709 H          1 MOL1         0.0742
      18    H10     20.012166   22.408552   21.451233 H          1 MOL1         0.0742
      19    C7      18.181400   21.395207   20.899329 C.3        1 MOL1        -0.2871
      20    H11     17.617153   21.612532   21.815588 H          1 MOL1         0.0754
      21    H12     17.842908   20.428040   20.507265 H          1 MOL1         0.0754
      22    H13     17.927259   22.161977   20.156095 H          1 MOL1         0.0754
@<TRIPOS>BOND
    1     1     2    1
    2     1     3    2
    3     1     4    1
    4     4     5    1
    5     4     6    1
    6     4     7    1
    7     7     8    1
    8     7     9    1
    9     7    10    1
   10    10    11    1
   11    10    12    1
   12    10    13    1
   13    13    14    1
   14    13    15    1
   15    13    16    1
   16    16    17    1
   17    16    18    1
   18    16    19    1
   19    19    20    1
   20    19    21    1
   21    19    22    1
@<TRIPOS>SUBSTRUCTURE
       1 MOL1            1 RESIDUE      1      MOL     
@<SCITEGIC>MOL_PROPERTY
VConf Rank
SciTegic.value.IntegerValue
464

@<SCITEGIC>MOL_PROPERTY
Conf_Id
SciTegic.value.IntegerValue
38

@<SCITEGIC>MOL_PROPERTY
Delta U+W
SciTegic.value.DoubleValue
-0.439

@<SCITEGIC>MOL_PROPERTY
U+W
SciTegic.value.DoubleValue
-53.598

@<SCITEGIC>MOL_PROPERTY
Grad RMS
SciTegic.value.DoubleValue
0.000000

@<SCITEGIC>MOL_PROPERTY
U
SciTegic.value.DoubleValue
6.751

@<SCITEGIC>MOL_PROPERTY
W
SciTegic.value.DoubleValue
-60.350

@<SCITEGIC>MOL_PROPERTY
W(PB)
SciTegic.value.DoubleValue
-62.659

@<SCITEGIC>MOL_PROPERTY
W(SA)
SciTegic.value.DoubleValue
2.309

@<SCITEGIC>MOL_PROPERTY
Valence
SciTegic.value.DoubleValue
7.602

@<SCITEGIC>MOL_PROPERTY
Coulomb
SciTegic.value.DoubleValue
-1.744

@<SCITEGIC>MOL_PROPERTY
VdW
SciTegic.value.DoubleValue
0.893

@<SCITEGIC>MOL_PROPERTY
VdW6
SciTegic.value.DoubleValue
-7.110

@<SCITEGIC>MOL_PROPERTY
VdW12
SciTegic.value.DoubleValue
8.004

@<SCITEGIC>MOL_PROPERTY
Bond
SciTegic.value.DoubleValue
0.131

@<SCITEGIC>MOL_PROPERTY
Angle
SciTegic.value.DoubleValue
2.489

@<SCITEGIC>MOL_PROPERTY
Pdih
SciTegic.value.DoubleValue
4.981

@<SCITEGIC>MOL_PROPERTY
Idih
SciTegic.value.DoubleValue
0.001

@<SCITEGIC>MOL_PROPERTY
Tether
SciTegic.value.DoubleValue
0.000

@<TRIPOS>MOLECULE
guest-s21_confgen4.mol2 : confsearch ligand conformer 465
          22          21           1
SMALL
USER_CHARGES
 
@<TRIPOS>ATOM
       1    C1      18.625917   21.664066   24.602893 C.2        1 MOL1         0.6145
       2    O1      17.469018   21.755238   24.963219 O.co2      1 MOL1        -0.6735
       3    O2      19.421644   22.580797   24.657264 O.co2      1 MOL1        -0.6735
       4    C2      19.098801   20.332705   24.030053 C.3        1 MOL1        -0.1985
       5    H1      18.541929   19.530805   24.529320 H          1 MOL1         0.0740
       6    H2      20.154325   20.211776   24.297833 H          1 MOL1         0.0740
       7    C3      18.908612   20.239777   22.493562 C.3        1 MOL1        -0.1882
       8    H3      17.859183   20.462523   22.255802 H          1 MOL1         0.0742
       9    H4      19.509359   21.016852   22.001066 H          1 MOL1         0.0742
      10    C4      19.264397   18.852869   21.906515 C.3        1 MOL1        -0.1880
      11    H5      18.963974   18.843961   20.851055 H          1 MOL1         0.0742
      12    H6      18.668283   18.077616   22.406814 H          1 MOL1         0.0742
      13    C5      20.769759   18.506408   22.015479 C.3        1 MOL1        -0.1880
      14    H7      21.365836   19.282680   21.516685 H          1 MOL1         0.0742
      15    H8      21.070866   18.511966   23.070649 H          1 MOL1         0.0742
      16    C6      21.125569   17.122051   21.424657 C.3        1 MOL1        -0.1856
      17    H9      20.522941   16.343861   21.913074 H          1 MOL1         0.0742
      18    H10     22.174237   16.897289   21.663451 H          1 MOL1         0.0742
      19    C7      20.938735   17.040941   19.893916 C.3        1 MOL1        -0.2871
      20    H11     19.882963   17.138022   19.612233 H          1 MOL1         0.0754
      21    H12     21.295093   16.074328   19.514986 H          1 MOL1         0.0754
      22    H13     21.505517   17.832306   19.386350 H          1 MOL1         0.0754
@<TRIPOS>BOND
    1     1     2    1
    2     1     3    2
    3     1     4    1
    4     4     5    1
    5     4     6    1
    6     4     7    1
    7     7     8    1
    8     7     9    1
    9     7    10    1
   10    10    11    1
   11    10    12    1
   12    10    13    1
   13    13    14    1
   14    13    15    1
   15    13    16    1
   16    16    17    1
   17    16    18    1
   18    16    19    1
   19    19    20    1
   20    19    21    1
   21    19    22    1
@<TRIPOS>SUBSTRUCTURE
       1 MOL1            1 RESIDUE      1      MOL     
@<SCITEGIC>MOL_PROPERTY
VConf Rank
SciTegic.value.IntegerValue
465

@<SCITEGIC>MOL_PROPERTY
Conf_Id
SciTegic.value.IntegerValue
60

@<SCITEGIC>MOL_PROPERTY
Delta U+W
SciTegic.value.DoubleValue
0.386

@<SCITEGIC>MOL_PROPERTY
U+W
SciTegic.value.DoubleValue
-52.773

@<SCITEGIC>MOL_PROPERTY
Grad RMS
SciTegic.value.DoubleValue
0.000000

@<SCITEGIC>MOL_PROPERTY
U
SciTegic.value.DoubleValue
7.689

@<SCITEGIC>MOL_PROPERTY
W
SciTegic.value.DoubleValue
-60.463

@<SCITEGIC>MOL_PROPERTY
W(PB)
SciTegic.value.DoubleValue
-62.772

@<SCITEGIC>MOL_PROPERTY
W(SA)
SciTegic.value.DoubleValue
2.309

@<SCITEGIC>MOL_PROPERTY
Valence
SciTegic.value.DoubleValue
8.197

@<SCITEGIC>MOL_PROPERTY
Coulomb
SciTegic.value.DoubleValue
-1.561

@<SCITEGIC>MOL_PROPERTY
VdW
SciTegic.value.DoubleValue
1.053

@<SCITEGIC>MOL_PROPERTY
VdW6
SciTegic.value.DoubleValue
-7.737

@<SCITEGIC>MOL_PROPERTY
VdW12
SciTegic.value.DoubleValue
8.790

@<SCITEGIC>MOL_PROPERTY
Bond
SciTegic.value.DoubleValue
0.181

@<SCITEGIC>MOL_PROPERTY
Angle
SciTegic.value.DoubleValue
2.780

@<SCITEGIC>MOL_PROPERTY
Pdih
SciTegic.value.DoubleValue
5.235

@<SCITEGIC>MOL_PROPERTY
Idih
SciTegic.value.DoubleValue
0.001

@<SCITEGIC>MOL_PROPERTY
Tether
SciTegic.value.DoubleValue
0.000

@<TRIPOS>MOLECULE
guest-s21_confgen4.mol2 : confsearch ligand conformer 466
          22          21           1
SMALL
USER_CHARGES
 
@<TRIPOS>ATOM
       1    C1      22.819257   19.696381   24.424651 C.2        1 MOL1         0.6145
       2    O1      22.920850   18.853612   25.294107 O.co2      1 MOL1        -0.6735
       3    O2      23.355477   20.785522   24.477572 O.co2      1 MOL1        -0.6735
       4    C2      21.953008   19.378563   23.211023 C.3        1 MOL1        -0.1985
       5    H1      22.037198   18.303913   23.014805 H          1 MOL1         0.0740
       6    H2      22.375691   19.902086   22.345183 H          1 MOL1         0.0740
       7    C3      20.469575   19.785171   23.410294 C.3        1 MOL1        -0.1882
       8    H3      20.042557   19.218547   24.249275 H          1 MOL1         0.0742
       9    H4      20.432034   20.844226   23.700879 H          1 MOL1         0.0742
      10    C4      19.596666   19.588203   22.147775 C.3        1 MOL1        -0.1880
      11    H5      20.030805   20.149236   21.309065 H          1 MOL1         0.0742
      12    H6      18.612334   20.032319   22.343170 H          1 MOL1         0.0742
      13    C5      19.420134   18.102751   21.747416 C.3        1 MOL1        -0.1880
      14    H7      20.403479   17.658223   21.548658 H          1 MOL1         0.0742
      15    H8      18.987746   17.541457   22.586875 H          1 MOL1         0.0742
      16    C6      18.543896   17.906150   20.488182 C.3        1 MOL1        -0.1856
      17    H9      18.582363   16.847862   20.195278 H          1 MOL1         0.0742
      18    H10     18.966799   18.475468   19.648942 H          1 MOL1         0.0742
      19    C7      17.067641   18.307685   20.698168 C.3        1 MOL1        -0.2871
      20    H11     16.633731   17.775751   21.554843 H          1 MOL1         0.0754
      21    H12     16.472727   18.059053   19.809812 H          1 MOL1         0.0754
      22    H13     16.965484   19.385702   20.873865 H          1 MOL1         0.0754
@<TRIPOS>BOND
    1     1     2    1
    2     1     3    2
    3     1     4    1
    4     4     5    1
    5     4     6    1
    6     4     7    1
    7     7     8    1
    8     7     9    1
    9     7    10    1
   10    10    11    1
   11    10    12    1
   12    10    13    1
   13    13    14    1
   14    13    15    1
   15    13    16    1
   16    16    17    1
   17    16    18    1
   18    16    19    1
   19    19    20    1
   20    19    21    1
   21    19    22    1
@<TRIPOS>SUBSTRUCTURE
       1 MOL1            1 RESIDUE      1      MOL     
@<SCITEGIC>MOL_PROPERTY
VConf Rank
SciTegic.value.IntegerValue
466

@<SCITEGIC>MOL_PROPERTY
Conf_Id
SciTegic.value.IntegerValue
28

@<SCITEGIC>MOL_PROPERTY
Delta U+W
SciTegic.value.DoubleValue
0.351

@<SCITEGIC>MOL_PROPERTY
U+W
SciTegic.value.DoubleValue
-52.808

@<SCITEGIC>MOL_PROPERTY
Grad RMS
SciTegic.value.DoubleValue
0.000000

@<SCITEGIC>MOL_PROPERTY
U
SciTegic.value.DoubleValue
7.689

@<SCITEGIC>MOL_PROPERTY
W
SciTegic.value.DoubleValue
-60.498

@<SCITEGIC>MOL_PROPERTY
W(PB)
SciTegic.value.DoubleValue
-62.768

@<SCITEGIC>MOL_PROPERTY
W(SA)
SciTegic.value.DoubleValue
2.270

@<SCITEGIC>MOL_PROPERTY
Valence
SciTegic.value.DoubleValue
8.197

@<SCITEGIC>MOL_PROPERTY
Coulomb
SciTegic.value.DoubleValue
-1.561

@<SCITEGIC>MOL_PROPERTY
VdW
SciTegic.value.DoubleValue
1.053

@<SCITEGIC>MOL_PROPERTY
VdW6
SciTegic.value.DoubleValue
-7.737

@<SCITEGIC>MOL_PROPERTY
VdW12
SciTegic.value.DoubleValue
8.791

@<SCITEGIC>MOL_PROPERTY
Bond
SciTegic.value.DoubleValue
0.181

@<SCITEGIC>MOL_PROPERTY
Angle
SciTegic.value.DoubleValue
2.780

@<SCITEGIC>MOL_PROPERTY
Pdih
SciTegic.value.DoubleValue
5.235

@<SCITEGIC>MOL_PROPERTY
Idih
SciTegic.value.DoubleValue
0.001

@<SCITEGIC>MOL_PROPERTY
Tether
SciTegic.value.DoubleValue
0.000

@<TRIPOS>MOLECULE
guest-s21_confgen4.mol2 : confsearch ligand conformer 467
          22          21           1
SMALL
USER_CHARGES
 
@<TRIPOS>ATOM
       1    C1      17.575800   18.890279   25.180672 C.2        1 MOL1         0.6145
       2    O1      17.769381   19.726854   26.040403 O.co2      1 MOL1        -0.6735
       3    O2      16.472721   18.594187   24.765940 O.co2      1 MOL1        -0.6735
       4    C2      18.785404   18.187465   24.574676 C.3        1 MOL1        -0.1985
       5    H1      18.485674   17.168860   24.300348 H          1 MOL1         0.0740
       6    H2      19.553922   18.101163   25.352204 H          1 MOL1         0.0740
       7    C3      19.354636   18.927539   23.339140 C.3        1 MOL1        -0.1882
       8    H3      18.562321   19.019048   22.584599 H          1 MOL1         0.0742
       9    H4      19.641639   19.948045   23.628107 H          1 MOL1         0.0742
      10    C4      20.576410   18.191151   22.742430 C.3        1 MOL1        -0.1880
      11    H5      20.277155   17.189339   22.405077 H          1 MOL1         0.0742
      12    H6      21.324511   18.042307   23.533096 H          1 MOL1         0.0742
      13    C5      21.244602   18.952968   21.573364 C.3        1 MOL1        -0.1880
      14    H7      21.547671   19.953369   21.911416 H          1 MOL1         0.0742
      15    H8      22.167971   18.425719   21.297094 H          1 MOL1         0.0742
      16    C6      20.344526   19.076022   20.323160 C.3        1 MOL1        -0.1856
      17    H9      19.450210   19.668222   20.557377 H          1 MOL1         0.0742
      18    H10     19.998300   18.079495   20.016128 H          1 MOL1         0.0742
      19    C7      21.093260   19.741517   19.150886 C.3        1 MOL1        -0.2871
      20    H11     21.975017   19.154078   18.863175 H          1 MOL1         0.0754
      21    H12     21.427439   20.751662   19.421658 H          1 MOL1         0.0754
      22    H13     20.440327   19.824603   18.272340 H          1 MOL1         0.0754
@<TRIPOS>BOND
    1     1     2    1
    2     1     3    2
    3     1     4    1
    4     4     5    1
    5     4     6    1
    6     4     7    1
    7     7     8    1
    8     7     9    1
    9     7    10    1
   10    10    11    1
   11    10    12    1
   12    10    13    1
   13    13    14    1
   14    13    15    1
   15    13    16    1
   16    16    17    1
   17    16    18    1
   18    16    19    1
   19    19    20    1
   20    19    21    1
   21    19    22    1
@<TRIPOS>SUBSTRUCTURE
       1 MOL1            1 RESIDUE      1      MOL     
@<SCITEGIC>MOL_PROPERTY
VConf Rank
SciTegic.value.IntegerValue
467

@<SCITEGIC>MOL_PROPERTY
Conf_Id
SciTegic.value.IntegerValue
50

@<SCITEGIC>MOL_PROPERTY
Delta U+W
SciTegic.value.DoubleValue
-0.486

@<SCITEGIC>MOL_PROPERTY
U+W
SciTegic.value.DoubleValue
-53.646

@<SCITEGIC>MOL_PROPERTY
Grad RMS
SciTegic.value.DoubleValue
0.000000

@<SCITEGIC>MOL_PROPERTY
U
SciTegic.value.DoubleValue
7.026

@<SCITEGIC>MOL_PROPERTY
W
SciTegic.value.DoubleValue
-60.672

@<SCITEGIC>MOL_PROPERTY
W(PB)
SciTegic.value.DoubleValue
-62.964

@<SCITEGIC>MOL_PROPERTY
W(SA)
SciTegic.value.DoubleValue
2.292

@<SCITEGIC>MOL_PROPERTY
Valence
SciTegic.value.DoubleValue
7.637

@<SCITEGIC>MOL_PROPERTY
Coulomb
SciTegic.value.DoubleValue
-1.488

@<SCITEGIC>MOL_PROPERTY
VdW
SciTegic.value.DoubleValue
0.877

@<SCITEGIC>MOL_PROPERTY
VdW6
SciTegic.value.DoubleValue
-7.165

@<SCITEGIC>MOL_PROPERTY
VdW12
SciTegic.value.DoubleValue
8.043

@<SCITEGIC>MOL_PROPERTY
Bond
SciTegic.value.DoubleValue
0.134

@<SCITEGIC>MOL_PROPERTY
Angle
SciTegic.value.DoubleValue
2.513

@<SCITEGIC>MOL_PROPERTY
Pdih
SciTegic.value.DoubleValue
4.990

@<SCITEGIC>MOL_PROPERTY
Idih
SciTegic.value.DoubleValue
0.001

@<SCITEGIC>MOL_PROPERTY
Tether
SciTegic.value.DoubleValue
0.000

@<TRIPOS>MOLECULE
guest-s21_confgen4.mol2 : confsearch ligand conformer 468
          22          21           1
SMALL
USER_CHARGES
 
@<TRIPOS>ATOM
       1    C1      17.083696   16.853708   23.746965 C.2        1 MOL1         0.6145
       2    O1      16.030177   16.785559   23.145362 O.co2      1 MOL1        -0.6735
       3    O2      17.163461   16.953806   24.955299 O.co2      1 MOL1        -0.6735
       4    C2      18.376591   16.833053   22.939299 C.3        1 MOL1        -0.1985
       5    H1      18.215331   16.205492   22.054551 H          1 MOL1         0.0740
       6    H2      19.149609   16.346081   23.545889 H          1 MOL1         0.0740
       7    C3      18.843319   18.247307   22.514626 C.3        1 MOL1        -0.1882
       8    H3      18.055232   18.724750   21.916070 H          1 MOL1         0.0742
       9    H4      18.978287   18.861256   23.414803 H          1 MOL1         0.0742
      10    C4      20.157734   18.197122   21.701691 C.3        1 MOL1        -0.1880
      11    H5      20.024110   17.517648   20.848800 H          1 MOL1         0.0742
      12    H6      20.959102   17.767823   22.318537 H          1 MOL1         0.0742
      13    C5      20.602246   19.577582   21.162894 C.3        1 MOL1        -0.1880
      14    H7      21.465067   19.430540   20.498932 H          1 MOL1         0.0742
      15    H8      19.802718   20.005482   20.542742 H          1 MOL1         0.0742
      16    C6      20.990541   20.577695   22.275229 C.3        1 MOL1        -0.1856
      17    H9      21.752660   20.129268   22.927375 H          1 MOL1         0.0742
      18    H10     20.119474   20.799814   22.905517 H          1 MOL1         0.0742
      19    C7      21.532052   21.895899   21.686312 C.3        1 MOL1        -0.2871
      20    H11     20.779166   22.380212   21.050712 H          1 MOL1         0.0754
      21    H12     22.429165   21.716364   21.079423 H          1 MOL1         0.0754
      22    H13     21.800130   22.596295   22.487967 H          1 MOL1         0.0754
@<TRIPOS>BOND
    1     1     2    1
    2     1     3    2
    3     1     4    1
    4     4     5    1
    5     4     6    1
    6     4     7    1
    7     7     8    1
    8     7     9    1
    9     7    10    1
   10    10    11    1
   11    10    12    1
   12    10    13    1
   13    13    14    1
   14    13    15    1
   15    13    16    1
   16    16    17    1
   17    16    18    1
   18    16    19    1
   19    19    20    1
   20    19    21    1
   21    19    22    1
@<TRIPOS>SUBSTRUCTURE
       1 MOL1            1 RESIDUE      1      MOL     
@<SCITEGIC>MOL_PROPERTY
VConf Rank
SciTegic.value.IntegerValue
468

@<SCITEGIC>MOL_PROPERTY
Conf_Id
SciTegic.value.IntegerValue
51

@<SCITEGIC>MOL_PROPERTY
Delta U+W
SciTegic.value.DoubleValue
-0.517

@<SCITEGIC>MOL_PROPERTY
U+W
SciTegic.value.DoubleValue
-53.677

@<SCITEGIC>MOL_PROPERTY
Grad RMS
SciTegic.value.DoubleValue
0.000000

@<SCITEGIC>MOL_PROPERTY
U
SciTegic.value.DoubleValue
7.026

@<SCITEGIC>MOL_PROPERTY
W
SciTegic.value.DoubleValue
-60.703

@<SCITEGIC>MOL_PROPERTY
W(PB)
SciTegic.value.DoubleValue
-63.007

@<SCITEGIC>MOL_PROPERTY
W(SA)
SciTegic.value.DoubleValue
2.304

@<SCITEGIC>MOL_PROPERTY
Valence
SciTegic.value.DoubleValue
7.638

@<SCITEGIC>MOL_PROPERTY
Coulomb
SciTegic.value.DoubleValue
-1.488

@<SCITEGIC>MOL_PROPERTY
VdW
SciTegic.value.DoubleValue
0.877

@<SCITEGIC>MOL_PROPERTY
VdW6
SciTegic.value.DoubleValue
-7.165

@<SCITEGIC>MOL_PROPERTY
VdW12
SciTegic.value.DoubleValue
8.042

@<SCITEGIC>MOL_PROPERTY
Bond
SciTegic.value.DoubleValue
0.134

@<SCITEGIC>MOL_PROPERTY
Angle
SciTegic.value.DoubleValue
2.513

@<SCITEGIC>MOL_PROPERTY
Pdih
SciTegic.value.DoubleValue
4.990

@<SCITEGIC>MOL_PROPERTY
Idih
SciTegic.value.DoubleValue
0.001

@<SCITEGIC>MOL_PROPERTY
Tether
SciTegic.value.DoubleValue
0.000

@<TRIPOS>MOLECULE
guest-s21_confgen4.mol2 : confsearch ligand conformer 469
          22          21           1
SMALL
USER_CHARGES
 
@<TRIPOS>ATOM
       1    C1      16.596908   19.227563   21.655795 C.2        1 MOL1         0.6145
       2    O1      15.928646   18.284452   22.031119 O.co2      1 MOL1        -0.6735
       3    O2      16.448730   20.361995   22.065551 O.co2      1 MOL1        -0.6735
       4    C2      17.667516   18.974427   20.598036 C.3        1 MOL1        -0.1985
       5    H1      17.928564   19.930450   20.128164 H          1 MOL1         0.0740
       6    H2      17.216463   18.350055   19.817809 H          1 MOL1         0.0740
       7    C3      18.942270   18.280436   21.144269 C.3        1 MOL1        -0.1882
       8    H3      18.661525   17.338755   21.636277 H          1 MOL1         0.0742
       9    H4      19.592743   18.014384   20.300086 H          1 MOL1         0.0742
      10    C4      19.727975   19.172659   22.131281 C.3        1 MOL1        -0.1880
      11    H5      19.088933   19.429102   22.987593 H          1 MOL1         0.0742
      12    H6      19.994780   20.117858   21.638910 H          1 MOL1         0.0742
      13    C5      21.008542   18.474776   22.637799 C.3        1 MOL1        -0.1880
      14    H7      20.740907   17.529705   23.130059 H          1 MOL1         0.0742
      15    H8      21.650615   18.219882   21.783498 H          1 MOL1         0.0742
      16    C6      21.793320   19.364891   23.624137 C.3        1 MOL1        -0.1856
      17    H9      21.154671   19.620458   24.481059 H          1 MOL1         0.0742
      18    H10     22.064256   20.310644   23.134639 H          1 MOL1         0.0742
      19    C7      23.071046   18.664454   24.128282 C.3        1 MOL1        -0.2871
      20    H11     22.826749   17.730030   24.650364 H          1 MOL1         0.0754
      21    H12     23.616257   19.311095   24.828058 H          1 MOL1         0.0754
      22    H13     23.743217   18.425355   23.293768 H          1 MOL1         0.0754
@<TRIPOS>BOND
    1     1     2    1
    2     1     3    2
    3     1     4    1
    4     4     5    1
    5     4     6    1
    6     4     7    1
    7     7     8    1
    8     7     9    1
    9     7    10    1
   10    10    11    1
   11    10    12    1
   12    10    13    1
   13    13    14    1
   14    13    15    1
   15    13    16    1
   16    16    17    1
   17    16    18    1
   18    16    19    1
   19    19    20    1
   20    19    21    1
   21    19    22    1
@<TRIPOS>SUBSTRUCTURE
       1 MOL1            1 RESIDUE      1      MOL     
@<SCITEGIC>MOL_PROPERTY
VConf Rank
SciTegic.value.IntegerValue
469

@<SCITEGIC>MOL_PROPERTY
Conf_Id
SciTegic.value.IntegerValue
43

@<SCITEGIC>MOL_PROPERTY
Delta U+W
SciTegic.value.DoubleValue
-0.129

@<SCITEGIC>MOL_PROPERTY
U+W
SciTegic.value.DoubleValue
-53.289

@<SCITEGIC>MOL_PROPERTY
Grad RMS
SciTegic.value.DoubleValue
0.000000

@<SCITEGIC>MOL_PROPERTY
U
SciTegic.value.DoubleValue
7.937

@<SCITEGIC>MOL_PROPERTY
W
SciTegic.value.DoubleValue
-61.225

@<SCITEGIC>MOL_PROPERTY
W(PB)
SciTegic.value.DoubleValue
-63.523

@<SCITEGIC>MOL_PROPERTY
W(SA)
SciTegic.value.DoubleValue
2.297

@<SCITEGIC>MOL_PROPERTY
Valence
SciTegic.value.DoubleValue
7.358

@<SCITEGIC>MOL_PROPERTY
Coulomb
SciTegic.value.DoubleValue
-0.022

@<SCITEGIC>MOL_PROPERTY
VdW
SciTegic.value.DoubleValue
0.601

@<SCITEGIC>MOL_PROPERTY
VdW6
SciTegic.value.DoubleValue
-7.363

@<SCITEGIC>MOL_PROPERTY
VdW12
SciTegic.value.DoubleValue
7.964

@<SCITEGIC>MOL_PROPERTY
Bond
SciTegic.value.DoubleValue
0.121

@<SCITEGIC>MOL_PROPERTY
Angle
SciTegic.value.DoubleValue
2.425

@<SCITEGIC>MOL_PROPERTY
Pdih
SciTegic.value.DoubleValue
4.811

@<SCITEGIC>MOL_PROPERTY
Idih
SciTegic.value.DoubleValue
0.000

@<SCITEGIC>MOL_PROPERTY
Tether
SciTegic.value.DoubleValue
0.000

@<TRIPOS>MOLECULE
guest-s21_confgen4.mol2 : confsearch ligand conformer 470
          22          21           1
SMALL
USER_CHARGES
 
@<TRIPOS>ATOM
       1    C1      18.803708   22.367325   22.976591 C.2        1 MOL1         0.6145
       2    O1      18.893078   22.670769   24.149978 O.co2      1 MOL1        -0.6735
       3    O2      17.760571   22.390847   22.353610 O.co2      1 MOL1        -0.6735
       4    C2      20.075609   21.951932   22.242530 C.3        1 MOL1        -0.1985
       5    H1      20.856767   22.675040   22.505107 H          1 MOL1         0.0740
       6    H2      19.904277   22.047539   21.163453 H          1 MOL1         0.0740
       7    C3      20.560863   20.518851   22.582832 C.3        1 MOL1        -0.1882
       8    H3      21.545216   20.357286   22.122955 H          1 MOL1         0.0742
       9    H4      20.700941   20.430431   23.669208 H          1 MOL1         0.0742
      10    C4      19.583468   19.427961   22.090647 C.3        1 MOL1        -0.1880
      11    H5      19.436661   19.528869   21.006544 H          1 MOL1         0.0742
      12    H6      18.600463   19.572763   22.559841 H          1 MOL1         0.0742
      13    C5      20.101132   18.009405   22.411864 C.3        1 MOL1        -0.1880
      14    H7      21.082811   17.861127   21.941355 H          1 MOL1         0.0742
      15    H8      20.247637   17.909277   23.496124 H          1 MOL1         0.0742
      16    C6      19.125200   16.919463   21.921321 C.3        1 MOL1        -0.1856
      17    H9      18.977458   17.015435   20.836690 H          1 MOL1         0.0742
      18    H10     18.142442   17.063535   22.391356 H          1 MOL1         0.0742
      19    C7      19.645142   15.504312   22.244377 C.3        1 MOL1        -0.2871
      20    H11     20.613464   15.321618   21.760257 H          1 MOL1         0.0754
      21    H12     18.939369   14.742348   21.888875 H          1 MOL1         0.0754
      22    H13     19.772108   15.370101   23.326628 H          1 MOL1         0.0754
@<TRIPOS>BOND
    1     1     2    1
    2     1     3    2
    3     1     4    1
    4     4     5    1
    5     4     6    1
    6     4     7    1
    7     7     8    1
    8     7     9    1
    9     7    10    1
   10    10    11    1
   11    10    12    1
   12    10    13    1
   13    13    14    1
   14    13    15    1
   15    13    16    1
   16    16    17    1
   17    16    18    1
   18    16    19    1
   19    19    20    1
   20    19    21    1
   21    19    22    1
@<TRIPOS>SUBSTRUCTURE
       1 MOL1            1 RESIDUE      1      MOL     
@<SCITEGIC>MOL_PROPERTY
VConf Rank
SciTegic.value.IntegerValue
470

@<SCITEGIC>MOL_PROPERTY
Conf_Id
SciTegic.value.IntegerValue
44

@<SCITEGIC>MOL_PROPERTY
Delta U+W
SciTegic.value.DoubleValue
-0.155

@<SCITEGIC>MOL_PROPERTY
U+W
SciTegic.value.DoubleValue
-53.314

@<SCITEGIC>MOL_PROPERTY
Grad RMS
SciTegic.value.DoubleValue
0.000000

@<SCITEGIC>MOL_PROPERTY
U
SciTegic.value.DoubleValue
7.937

@<SCITEGIC>MOL_PROPERTY
W
SciTegic.value.DoubleValue
-61.252

@<SCITEGIC>MOL_PROPERTY
W(PB)
SciTegic.value.DoubleValue
-63.556

@<SCITEGIC>MOL_PROPERTY
W(SA)
SciTegic.value.DoubleValue
2.304

@<SCITEGIC>MOL_PROPERTY
Valence
SciTegic.value.DoubleValue
7.358

@<SCITEGIC>MOL_PROPERTY
Coulomb
SciTegic.value.DoubleValue
-0.021

@<SCITEGIC>MOL_PROPERTY
VdW
SciTegic.value.DoubleValue
0.600

@<SCITEGIC>MOL_PROPERTY
VdW6
SciTegic.value.DoubleValue
-7.363

@<SCITEGIC>MOL_PROPERTY
VdW12
SciTegic.value.DoubleValue
7.964

@<SCITEGIC>MOL_PROPERTY
Bond
SciTegic.value.DoubleValue
0.121

@<SCITEGIC>MOL_PROPERTY
Angle
SciTegic.value.DoubleValue
2.425

@<SCITEGIC>MOL_PROPERTY
Pdih
SciTegic.value.DoubleValue
4.811

@<SCITEGIC>MOL_PROPERTY
Idih
SciTegic.value.DoubleValue
0.001

@<SCITEGIC>MOL_PROPERTY
Tether
SciTegic.value.DoubleValue
0.000

@<TRIPOS>MOLECULE
guest-s21_confgen4.mol2 : confsearch ligand conformer 471
          22          21           1
SMALL
USER_CHARGES
 
@<TRIPOS>ATOM
       1    C1      20.210393   22.035676   20.510209 C.2        1 MOL1         0.6145
       2    O1      21.386601   22.240543   20.283293 O.co2      1 MOL1        -0.6735
       3    O2      19.464250   22.865355   20.991633 O.co2      1 MOL1        -0.6735
       4    C2      19.636622   20.667401   20.152549 C.3        1 MOL1        -0.1985
       5    H1      19.993070   20.416210   19.146626 H          1 MOL1         0.0740
       6    H2      18.544737   20.750261   20.090827 H          1 MOL1         0.0740
       7    C3      20.032799   19.537794   21.138782 C.3        1 MOL1        -0.1882
       8    H3      19.707390   18.578475   20.716904 H          1 MOL1         0.0742
       9    H4      21.127678   19.493817   21.220693 H          1 MOL1         0.0742
      10    C4      19.408811   19.728860   22.542115 C.3        1 MOL1        -0.1880
      11    H5      18.313079   19.730272   22.463558 H          1 MOL1         0.0742
      12    H6      19.691925   20.716604   22.930958 H          1 MOL1         0.0742
      13    C5      19.854000   18.657791   23.566050 C.3        1 MOL1        -0.1880
      14    H7      20.949820   18.656587   23.644120 H          1 MOL1         0.0742
      15    H8      19.472755   18.943920   24.555840 H          1 MOL1         0.0742
      16    C6      19.353639   17.234962   23.228973 C.3        1 MOL1        -0.1856
      17    H9      19.787937   16.895724   22.279490 H          1 MOL1         0.0742
      18    H10     18.262931   17.247183   23.097065 H          1 MOL1         0.0742
      19    C7      19.723989   16.228406   24.336866 C.3        1 MOL1        -0.2871
      20    H11     20.812343   16.175903   24.471451 H          1 MOL1         0.0754
      21    H12     19.365088   15.222884   24.081563 H          1 MOL1         0.0754
      22    H13     19.273201   16.515527   25.295880 H          1 MOL1         0.0754
@<TRIPOS>BOND
    1     1     2    1
    2     1     3    2
    3     1     4    1
    4     4     5    1
    5     4     6    1
    6     4     7    1
    7     7     8    1
    8     7     9    1
    9     7    10    1
   10    10    11    1
   11    10    12    1
   12    10    13    1
   13    13    14    1
   14    13    15    1
   15    13    16    1
   16    16    17    1
   17    16    18    1
   18    16    19    1
   19    19    20    1
   20    19    21    1
   21    19    22    1
@<TRIPOS>SUBSTRUCTURE
       1 MOL1            1 RESIDUE      1      MOL     
@<SCITEGIC>MOL_PROPERTY
VConf Rank
SciTegic.value.IntegerValue
471

@<SCITEGIC>MOL_PROPERTY
Conf_Id
SciTegic.value.IntegerValue
53

@<SCITEGIC>MOL_PROPERTY
Delta U+W
SciTegic.value.DoubleValue
0.723

@<SCITEGIC>MOL_PROPERTY
U+W
SciTegic.value.DoubleValue
-52.436

@<SCITEGIC>MOL_PROPERTY
Grad RMS
SciTegic.value.DoubleValue
0.000000

@<SCITEGIC>MOL_PROPERTY
U
SciTegic.value.DoubleValue
8.587

@<SCITEGIC>MOL_PROPERTY
W
SciTegic.value.DoubleValue
-61.022

@<SCITEGIC>MOL_PROPERTY
W(PB)
SciTegic.value.DoubleValue
-63.285

@<SCITEGIC>MOL_PROPERTY
W(SA)
SciTegic.value.DoubleValue
2.263

@<SCITEGIC>MOL_PROPERTY
Valence
SciTegic.value.DoubleValue
7.933

@<SCITEGIC>MOL_PROPERTY
Coulomb
SciTegic.value.DoubleValue
-0.124

@<SCITEGIC>MOL_PROPERTY
VdW
SciTegic.value.DoubleValue
0.778

@<SCITEGIC>MOL_PROPERTY
VdW6
SciTegic.value.DoubleValue
-7.981

@<SCITEGIC>MOL_PROPERTY
VdW12
SciTegic.value.DoubleValue
8.759

@<SCITEGIC>MOL_PROPERTY
Bond
SciTegic.value.DoubleValue
0.160

@<SCITEGIC>MOL_PROPERTY
Angle
SciTegic.value.DoubleValue
2.698

@<SCITEGIC>MOL_PROPERTY
Pdih
SciTegic.value.DoubleValue
5.074

@<SCITEGIC>MOL_PROPERTY
Idih
SciTegic.value.DoubleValue
0.001

@<SCITEGIC>MOL_PROPERTY
Tether
SciTegic.value.DoubleValue
0.000

@<TRIPOS>MOLECULE
guest-s21_confgen4.mol2 : confsearch ligand conformer 472
          22          21           1
SMALL
USER_CHARGES
 
@<TRIPOS>ATOM
       1    C1      22.031025   18.949626   19.891238 C.2        1 MOL1         0.6145
       2    O1      21.849277   17.967798   19.198743 O.co2      1 MOL1        -0.6735
       3    O2      22.864948   19.799298   19.647903 O.co2      1 MOL1        -0.6735
       4    C2      21.149522   19.137432   21.120742 C.3        1 MOL1        -0.1985
       5    H1      21.732114   19.673412   21.879420 H          1 MOL1         0.0740
       6    H2      20.921970   18.142722   21.520120 H          1 MOL1         0.0740
       7    C3      19.840043   19.904978   20.808857 C.3        1 MOL1        -0.1882
       8    H3      20.094549   20.836768   20.285010 H          1 MOL1         0.0742
       9    H4      19.233383   19.314598   20.108379 H          1 MOL1         0.0742
      10    C4      18.994122   20.258914   22.057782 C.3        1 MOL1        -0.1880
      11    H5      18.125451   20.837769   21.715314 H          1 MOL1         0.0742
      12    H6      19.558891   20.931279   22.718022 H          1 MOL1         0.0742
      13    C5      18.474702   19.034957   22.853923 C.3        1 MOL1        -0.1880
      14    H7      17.468885   19.266191   23.230558 H          1 MOL1         0.0742
      15    H8      18.359196   18.171010   22.185181 H          1 MOL1         0.0742
      16    C6      19.366656   18.665904   24.061802 C.3        1 MOL1        -0.1856
      17    H9      19.425617   19.520607   24.749699 H          1 MOL1         0.0742
      18    H10     20.391890   18.455098   23.734967 H          1 MOL1         0.0742
      19    C7      18.814847   17.441155   24.818657 C.3        1 MOL1        -0.2871
      20    H11     17.802034   17.635241   25.195316 H          1 MOL1         0.0754
      21    H12     19.454380   17.196177   25.676571 H          1 MOL1         0.0754
      22    H13     18.774487   16.560934   24.163721 H          1 MOL1         0.0754
@<TRIPOS>BOND
    1     1     2    1
    2     1     3    2
    3     1     4    1
    4     4     5    1
    5     4     6    1
    6     4     7    1
    7     7     8    1
    8     7     9    1
    9     7    10    1
   10    10    11    1
   11    10    12    1
   12    10    13    1
   13    13    14    1
   14    13    15    1
   15    13    16    1
   16    16    17    1
   17    16    18    1
   18    16    19    1
   19    19    20    1
   20    19    21    1
   21    19    22    1
@<TRIPOS>SUBSTRUCTURE
       1 MOL1            1 RESIDUE      1      MOL     
@<SCITEGIC>MOL_PROPERTY
VConf Rank
SciTegic.value.IntegerValue
472

@<SCITEGIC>MOL_PROPERTY
Conf_Id
SciTegic.value.IntegerValue
5

@<SCITEGIC>MOL_PROPERTY
Delta U+W
SciTegic.value.DoubleValue
2.167

@<SCITEGIC>MOL_PROPERTY
U+W
SciTegic.value.DoubleValue
-50.993

@<SCITEGIC>MOL_PROPERTY
Grad RMS
SciTegic.value.DoubleValue
0.000000

@<SCITEGIC>MOL_PROPERTY
U
SciTegic.value.DoubleValue
10.045

@<SCITEGIC>MOL_PROPERTY
W
SciTegic.value.DoubleValue
-61.037

@<SCITEGIC>MOL_PROPERTY
W(PB)
SciTegic.value.DoubleValue
-63.303

@<SCITEGIC>MOL_PROPERTY
W(SA)
SciTegic.value.DoubleValue
2.266

@<SCITEGIC>MOL_PROPERTY
Valence
SciTegic.value.DoubleValue
10.100

@<SCITEGIC>MOL_PROPERTY
Coulomb
SciTegic.value.DoubleValue
-0.883

@<SCITEGIC>MOL_PROPERTY
VdW
SciTegic.value.DoubleValue
0.828

@<SCITEGIC>MOL_PROPERTY
VdW6
SciTegic.value.DoubleValue
-8.177

@<SCITEGIC>MOL_PROPERTY
VdW12
SciTegic.value.DoubleValue
9.005

@<SCITEGIC>MOL_PROPERTY
Bond
SciTegic.value.DoubleValue
0.182

@<SCITEGIC>MOL_PROPERTY
Angle
SciTegic.value.DoubleValue
2.988

@<SCITEGIC>MOL_PROPERTY
Pdih
SciTegic.value.DoubleValue
6.930

@<SCITEGIC>MOL_PROPERTY
Idih
SciTegic.value.DoubleValue
0.001

@<SCITEGIC>MOL_PROPERTY
Tether
SciTegic.value.DoubleValue
0.000

@<TRIPOS>MOLECULE
guest-s21_confgen4.mol2 : confsearch ligand conformer 473
          22          21           1
SMALL
USER_CHARGES
 
@<TRIPOS>ATOM
       1    C1      21.717734   16.953259   24.344975 C.2        1 MOL1         0.6145
       2    O1      22.834526   16.852044   23.876894 O.co2      1 MOL1        -0.6735
       3    O2      21.348400   16.358809   25.338357 O.co2      1 MOL1        -0.6735
       4    C2      20.717735   17.858029   23.634066 C.3        1 MOL1        -0.1985
       5    H1      21.277184   18.696303   23.203898 H          1 MOL1         0.0740
       6    H2      20.033760   18.268004   24.386648 H          1 MOL1         0.0740
       7    C3      19.919932   17.119826   22.529661 C.3        1 MOL1        -0.1882
       8    H3      20.613080   16.786203   21.745125 H          1 MOL1         0.0742
       9    H4      19.482499   16.208724   22.960900 H          1 MOL1         0.0742
      10    C4      18.781941   17.958215   21.895034 C.3        1 MOL1        -0.1880
      11    H5      18.031372   18.212845   22.655799 H          1 MOL1         0.0742
      12    H6      18.264441   17.316660   21.168709 H          1 MOL1         0.0742
      13    C5      19.255550   19.236586   21.158032 C.3        1 MOL1        -0.1880
      14    H7      20.279578   19.099481   20.784493 H          1 MOL1         0.0742
      15    H8      18.623719   19.381094   20.270957 H          1 MOL1         0.0742
      16    C6      19.164817   20.513406   22.025358 C.3        1 MOL1        -0.1856
      17    H9      19.759227   20.402250   22.940063 H          1 MOL1         0.0742
      18    H10     18.124617   20.668306   22.343457 H          1 MOL1         0.0742
      19    C7      19.651093   21.756603   21.253781 C.3        1 MOL1        -0.2871
      20    H11     20.700159   21.644177   20.950170 H          1 MOL1         0.0754
      21    H12     19.573887   22.655070   21.879744 H          1 MOL1         0.0754
      22    H13     19.048220   21.919684   20.350852 H          1 MOL1         0.0754
@<TRIPOS>BOND
    1     1     2    1
    2     1     3    2
    3     1     4    1
    4     4     5    1
    5     4     6    1
    6     4     7    1
    7     7     8    1
    8     7     9    1
    9     7    10    1
   10    10    11    1
   11    10    12    1
   12    10    13    1
   13    13    14    1
   14    13    15    1
   15    13    16    1
   16    16    17    1
   17    16    18    1
   18    16    19    1
   19    19    20    1
   20    19    21    1
   21    19    22    1
@<TRIPOS>SUBSTRUCTURE
       1 MOL1            1 RESIDUE      1      MOL     
@<SCITEGIC>MOL_PROPERTY
VConf Rank
SciTegic.value.IntegerValue
473

@<SCITEGIC>MOL_PROPERTY
Conf_Id
SciTegic.value.IntegerValue
6

@<SCITEGIC>MOL_PROPERTY
Delta U+W
SciTegic.value.DoubleValue
2.118

@<SCITEGIC>MOL_PROPERTY
U+W
SciTegic.value.DoubleValue
-51.042

@<SCITEGIC>MOL_PROPERTY
Grad RMS
SciTegic.value.DoubleValue
0.000000

@<SCITEGIC>MOL_PROPERTY
U
SciTegic.value.DoubleValue
10.045

@<SCITEGIC>MOL_PROPERTY
W
SciTegic.value.DoubleValue
-61.086

@<SCITEGIC>MOL_PROPERTY
W(PB)
SciTegic.value.DoubleValue
-63.356

@<SCITEGIC>MOL_PROPERTY
W(SA)
SciTegic.value.DoubleValue
2.270

@<SCITEGIC>MOL_PROPERTY
Valence
SciTegic.value.DoubleValue
10.100

@<SCITEGIC>MOL_PROPERTY
Coulomb
SciTegic.value.DoubleValue
-0.883

@<SCITEGIC>MOL_PROPERTY
VdW
SciTegic.value.DoubleValue
0.828

@<SCITEGIC>MOL_PROPERTY
VdW6
SciTegic.value.DoubleValue
-8.177

@<SCITEGIC>MOL_PROPERTY
VdW12
SciTegic.value.DoubleValue
9.004

@<SCITEGIC>MOL_PROPERTY
Bond
SciTegic.value.DoubleValue
0.182

@<SCITEGIC>MOL_PROPERTY
Angle
SciTegic.value.DoubleValue
2.988

@<SCITEGIC>MOL_PROPERTY
Pdih
SciTegic.value.DoubleValue
6.930

@<SCITEGIC>MOL_PROPERTY
Idih
SciTegic.value.DoubleValue
0.001

@<SCITEGIC>MOL_PROPERTY
Tether
SciTegic.value.DoubleValue
0.000

@<TRIPOS>MOLECULE
guest-s21_confgen4.mol2 : confsearch ligand conformer 474
          22          21           1
SMALL
USER_CHARGES
 
@<TRIPOS>ATOM
       1    C1      22.299775   19.286060   22.193234 C.2        1 MOL1         0.6145
       2    O1      22.588062   20.391753   22.607756 O.co2      1 MOL1        -0.6735
       3    O2      22.287987   18.994672   21.013399 O.co2      1 MOL1        -0.6735
       4    C2      22.005321   18.184533   23.209792 C.3        1 MOL1        -0.1985
       5    H1      22.928133   18.040067   23.783447 H          1 MOL1         0.0740
       6    H2      21.818607   17.245759   22.674365 H          1 MOL1         0.0740
       7    C3      20.839795   18.483960   24.194158 C.3        1 MOL1        -0.1882
       8    H3      20.959857   17.831868   25.069819 H          1 MOL1         0.0742
       9    H4      20.922270   19.513110   24.570484 H          1 MOL1         0.0742
      10    C4      19.423270   18.241539   23.616575 C.3        1 MOL1        -0.1880
      11    H5      18.699126   18.333058   24.437680 H          1 MOL1         0.0742
      12    H6      19.345251   17.208882   23.250022 H          1 MOL1         0.0742
      13    C5      19.024704   19.223523   22.491694 C.3        1 MOL1        -0.1880
      14    H7      19.200481   20.255979   22.823634 H          1 MOL1         0.0742
      15    H8      19.656613   19.057337   21.610141 H          1 MOL1         0.0742
      16    C6      17.545227   19.055657   22.085593 C.3        1 MOL1        -0.1856
      17    H9      16.898934   19.228082   22.957333 H          1 MOL1         0.0742
      18    H10     17.367441   18.022933   21.755008 H          1 MOL1         0.0742
      19    C7      17.152214   20.029891   20.956954 C.3        1 MOL1        -0.2871
      20    H11     17.290986   21.072325   21.272299 H          1 MOL1         0.0754
      21    H12     16.098418   19.896606   20.679872 H          1 MOL1         0.0754
      22    H13     17.763013   19.858937   20.060740 H          1 MOL1         0.0754
@<TRIPOS>BOND
    1     1     2    1
    2     1     3    2
    3     1     4    1
    4     4     5    1
    5     4     6    1
    6     4     7    1
    7     7     8    1
    8     7     9    1
    9     7    10    1
   10    10    11    1
   11    10    12    1
   12    10    13    1
   13    13    14    1
   14    13    15    1
   15    13    16    1
   16    16    17    1
   17    16    18    1
   18    16    19    1
   19    19    20    1
   20    19    21    1
   21    19    22    1
@<TRIPOS>SUBSTRUCTURE
       1 MOL1            1 RESIDUE      1      MOL     
@<SCITEGIC>MOL_PROPERTY
VConf Rank
SciTegic.value.IntegerValue
474

@<SCITEGIC>MOL_PROPERTY
Conf_Id
SciTegic.value.IntegerValue
8

@<SCITEGIC>MOL_PROPERTY
Delta U+W
SciTegic.value.DoubleValue
1.886

@<SCITEGIC>MOL_PROPERTY
U+W
SciTegic.value.DoubleValue
-51.274

@<SCITEGIC>MOL_PROPERTY
Grad RMS
SciTegic.value.DoubleValue
0.000000

@<SCITEGIC>MOL_PROPERTY
U
SciTegic.value.DoubleValue
11.237

@<SCITEGIC>MOL_PROPERTY
W
SciTegic.value.DoubleValue
-62.510

@<SCITEGIC>MOL_PROPERTY
W(PB)
SciTegic.value.DoubleValue
-64.777

@<SCITEGIC>MOL_PROPERTY
W(SA)
SciTegic.value.DoubleValue
2.267

@<SCITEGIC>MOL_PROPERTY
Valence
SciTegic.value.DoubleValue
9.029

@<SCITEGIC>MOL_PROPERTY
Coulomb
SciTegic.value.DoubleValue
1.667

@<SCITEGIC>MOL_PROPERTY
VdW
SciTegic.value.DoubleValue
0.540

@<SCITEGIC>MOL_PROPERTY
VdW6
SciTegic.value.DoubleValue
-8.825

@<SCITEGIC>MOL_PROPERTY
VdW12
SciTegic.value.DoubleValue
9.365

@<SCITEGIC>MOL_PROPERTY
Bond
SciTegic.value.DoubleValue
0.186

@<SCITEGIC>MOL_PROPERTY
Angle
SciTegic.value.DoubleValue
3.195

@<SCITEGIC>MOL_PROPERTY
Pdih
SciTegic.value.DoubleValue
5.642

@<SCITEGIC>MOL_PROPERTY
Idih
SciTegic.value.DoubleValue
0.007

@<SCITEGIC>MOL_PROPERTY
Tether
SciTegic.value.DoubleValue
0.000

@<TRIPOS>MOLECULE
guest-s21_confgen4.mol2 : confsearch ligand conformer 475
          22          21           1
SMALL
USER_CHARGES
 
@<TRIPOS>ATOM
       1    C1      18.206132   19.602753   25.085957 C.2        1 MOL1         0.6145
       2    O1      17.425288   20.296261   24.464593 O.co2      1 MOL1        -0.6735
       3    O2      18.737892   19.951824   26.121663 O.co2      1 MOL1        -0.6735
       4    C2      18.514312   18.205580   24.554828 C.3        1 MOL1        -0.1985
       5    H1      17.765274   17.943708   23.799135 H          1 MOL1         0.0740
       6    H2      18.373781   17.503672   25.385069 H          1 MOL1         0.0740
       7    C3      19.950510   18.044571   23.985128 C.3        1 MOL1        -0.1882
       8    H3      20.671241   18.237576   24.791740 H          1 MOL1         0.0742
       9    H4      20.102631   17.000257   23.680829 H          1 MOL1         0.0742
      10    C4      20.279347   18.976033   22.792242 C.3        1 MOL1        -0.1880
      11    H5      21.338833   18.841822   22.540310 H          1 MOL1         0.0742
      12    H6      20.164115   20.024958   23.097856 H          1 MOL1         0.0742
      13    C5      19.412121   18.702153   21.539105 C.3        1 MOL1        -0.1880
      14    H7      19.509283   17.649176   21.241968 H          1 MOL1         0.0742
      15    H8      18.355052   18.861889   21.788146 H          1 MOL1         0.0742
      16    C6      19.761495   19.613414   20.339296 C.3        1 MOL1        -0.1856
      17    H9      19.680049   20.667567   20.638469 H          1 MOL1         0.0742
      18    H10     19.013376   19.456748   19.550024 H          1 MOL1         0.0742
      19    C7      21.164084   19.345093   19.751450 C.3        1 MOL1        -0.2871
      20    H11     21.955518   19.604809   20.465262 H          1 MOL1         0.0754
      21    H12     21.322472   19.947577   18.847667 H          1 MOL1         0.0754
      22    H13     21.279695   18.288387   19.477400 H          1 MOL1         0.0754
@<TRIPOS>BOND
    1     1     2    1
    2     1     3    2
    3     1     4    1
    4     4     5    1
    5     4     6    1
    6     4     7    1
    7     7     8    1
    8     7     9    1
    9     7    10    1
   10    10    11    1
   11    10    12    1
   12    10    13    1
   13    13    14    1
   14    13    15    1
   15    13    16    1
   16    16    17    1
   17    16    18    1
   18    16    19    1
   19    19    20    1
   20    19    21    1
   21    19    22    1
@<TRIPOS>SUBSTRUCTURE
       1 MOL1            1 RESIDUE      1      MOL     
@<SCITEGIC>MOL_PROPERTY
VConf Rank
SciTegic.value.IntegerValue
475

@<SCITEGIC>MOL_PROPERTY
Conf_Id
SciTegic.value.IntegerValue
93

@<SCITEGIC>MOL_PROPERTY
Delta U+W
SciTegic.value.DoubleValue
1.836

@<SCITEGIC>MOL_PROPERTY
U+W
SciTegic.value.DoubleValue
-51.323

@<SCITEGIC>MOL_PROPERTY
Grad RMS
SciTegic.value.DoubleValue
0.000000

@<SCITEGIC>MOL_PROPERTY
U
SciTegic.value.DoubleValue
10.427

@<SCITEGIC>MOL_PROPERTY
W
SciTegic.value.DoubleValue
-61.751

@<SCITEGIC>MOL_PROPERTY
W(PB)
SciTegic.value.DoubleValue
-63.980

@<SCITEGIC>MOL_PROPERTY
W(SA)
SciTegic.value.DoubleValue
2.230

@<SCITEGIC>MOL_PROPERTY
Valence
SciTegic.value.DoubleValue
8.446

@<SCITEGIC>MOL_PROPERTY
Coulomb
SciTegic.value.DoubleValue
1.306

@<SCITEGIC>MOL_PROPERTY
VdW
SciTegic.value.DoubleValue
0.676

@<SCITEGIC>MOL_PROPERTY
VdW6
SciTegic.value.DoubleValue
-8.928

@<SCITEGIC>MOL_PROPERTY
VdW12
SciTegic.value.DoubleValue
9.604

@<SCITEGIC>MOL_PROPERTY
Bond
SciTegic.value.DoubleValue
0.209

@<SCITEGIC>MOL_PROPERTY
Angle
SciTegic.value.DoubleValue
3.066

@<SCITEGIC>MOL_PROPERTY
Pdih
SciTegic.value.DoubleValue
5.170

@<SCITEGIC>MOL_PROPERTY
Idih
SciTegic.value.DoubleValue
0.001

@<SCITEGIC>MOL_PROPERTY
Tether
SciTegic.value.DoubleValue
0.000

@<TRIPOS>MOLECULE
guest-s21_confgen4.mol2 : confsearch ligand conformer 476
          22          21           1
SMALL
USER_CHARGES
 
@<TRIPOS>ATOM
       1    C1      18.565572   19.591982   19.617811 C.2        1 MOL1         0.6145
       2    O1      19.121733   19.304045   18.576138 O.co2      1 MOL1        -0.6735
       3    O2      18.278987   20.729723   19.934325 O.co2      1 MOL1        -0.6735
       4    C2      18.180299   18.458512   20.564370 C.3        1 MOL1        -0.1985
       5    H1      17.649487   17.705186   19.970687 H          1 MOL1         0.0740
       6    H2      17.458403   18.840646   21.294815 H          1 MOL1         0.0740
       7    C3      19.386302   17.790411   21.280155 C.3        1 MOL1        -0.1882
       8    H3      19.023678   16.954049   21.892799 H          1 MOL1         0.0742
       9    H4      20.045730   17.350514   20.519253 H          1 MOL1         0.0742
      10    C4      20.220862   18.747396   22.166959 C.3        1 MOL1        -0.1880
      11    H5      20.617748   19.568849   21.554896 H          1 MOL1         0.0742
      12    H6      21.090267   18.191319   22.539661 H          1 MOL1         0.0742
      13    C5      19.427732   19.327808   23.363417 C.3        1 MOL1        -0.1880
      14    H7      18.573320   19.904459   22.986071 H          1 MOL1         0.0742
      15    H8      19.012505   18.509416   23.967003 H          1 MOL1         0.0742
      16    C6      20.270596   20.260216   24.264631 C.3        1 MOL1        -0.1856
      17    H9      19.604108   20.738341   24.995635 H          1 MOL1         0.0742
      18    H10     20.699961   21.071135   23.660118 H          1 MOL1         0.0742
      19    C7      21.395393   19.526353   25.026922 C.3        1 MOL1        -0.2871
      20    H11     22.155992   19.133654   24.340899 H          1 MOL1         0.0754
      21    H12     20.992447   18.688978   25.611333 H          1 MOL1         0.0754
      22    H13     21.898059   20.211821   25.721442 H          1 MOL1         0.0754
@<TRIPOS>BOND
    1     1     2    1
    2     1     3    2
    3     1     4    1
    4     4     5    1
    5     4     6    1
    6     4     7    1
    7     7     8    1
    8     7     9    1
    9     7    10    1
   10    10    11    1
   11    10    12    1
   12    10    13    1
   13    13    14    1
   14    13    15    1
   15    13    16    1
   16    16    17    1
   17    16    18    1
   18    16    19    1
   19    19    20    1
   20    19    21    1
   21    19    22    1
@<TRIPOS>SUBSTRUCTURE
       1 MOL1            1 RESIDUE      1      MOL     
@<SCITEGIC>MOL_PROPERTY
VConf Rank
SciTegic.value.IntegerValue
476

@<SCITEGIC>MOL_PROPERTY
Conf_Id
SciTegic.value.IntegerValue
70

@<SCITEGIC>MOL_PROPERTY
Delta U+W
SciTegic.value.DoubleValue
1.803

@<SCITEGIC>MOL_PROPERTY
U+W
SciTegic.value.DoubleValue
-51.356

@<SCITEGIC>MOL_PROPERTY
Grad RMS
SciTegic.value.DoubleValue
0.000000

@<SCITEGIC>MOL_PROPERTY
U
SciTegic.value.DoubleValue
10.428

@<SCITEGIC>MOL_PROPERTY
W
SciTegic.value.DoubleValue
-61.784

@<SCITEGIC>MOL_PROPERTY
W(PB)
SciTegic.value.DoubleValue
-64.014

@<SCITEGIC>MOL_PROPERTY
W(SA)
SciTegic.value.DoubleValue
2.230

@<SCITEGIC>MOL_PROPERTY
Valence
SciTegic.value.DoubleValue
8.445

@<SCITEGIC>MOL_PROPERTY
Coulomb
SciTegic.value.DoubleValue
1.306

@<SCITEGIC>MOL_PROPERTY
VdW
SciTegic.value.DoubleValue
0.676

@<SCITEGIC>MOL_PROPERTY
VdW6
SciTegic.value.DoubleValue
-8.929

@<SCITEGIC>MOL_PROPERTY
VdW12
SciTegic.value.DoubleValue
9.605

@<SCITEGIC>MOL_PROPERTY
Bond
SciTegic.value.DoubleValue
0.209

@<SCITEGIC>MOL_PROPERTY
Angle
SciTegic.value.DoubleValue
3.066

@<SCITEGIC>MOL_PROPERTY
Pdih
SciTegic.value.DoubleValue
5.170

@<SCITEGIC>MOL_PROPERTY
Idih
SciTegic.value.DoubleValue
0.001

@<SCITEGIC>MOL_PROPERTY
Tether
SciTegic.value.DoubleValue
0.000

@<TRIPOS>MOLECULE
guest-s21_confgen4.mol2 : confsearch ligand conformer 477
          22          21           1
SMALL
USER_CHARGES
 
@<TRIPOS>ATOM
       1    C1      20.899787   21.076721   24.709367 C.2        1 MOL1         0.6145
       2    O1      19.983726   21.190758   25.499772 O.co2      1 MOL1        -0.6735
       3    O2      21.426858   22.018440   24.150582 O.co2      1 MOL1        -0.6735
       4    C2      21.429591   19.675024   24.420145 C.3        1 MOL1        -0.1985
       5    H1      21.531337   19.157568   25.381356 H          1 MOL1         0.0740
       6    H2      22.438243   19.762082   23.998386 H          1 MOL1         0.0740
       7    C3      20.523679   18.841810   23.476716 C.3        1 MOL1        -0.1882
       8    H3      20.907822   17.813978   23.429159 H          1 MOL1         0.0742
       9    H4      19.516306   18.785080   23.909859 H          1 MOL1         0.0742
      10    C4      20.459031   19.429701   22.046762 C.3        1 MOL1        -0.1880
      11    H5      21.481919   19.559025   21.667531 H          1 MOL1         0.0742
      12    H6      20.010954   20.432552   22.075422 H          1 MOL1         0.0742
      13    C5      19.674330   18.542992   21.051010 C.3        1 MOL1        -0.1880
      14    H7      19.783704   18.969519   20.044530 H          1 MOL1         0.0742
      15    H8      20.125260   17.541889   21.014697 H          1 MOL1         0.0742
      16    C6      18.170073   18.425285   21.384965 C.3        1 MOL1        -0.1856
      17    H9      17.730663   19.428458   21.473465 H          1 MOL1         0.0742
      18    H10     18.035577   17.929786   22.355403 H          1 MOL1         0.0742
      19    C7      17.411848   17.627316   20.305117 C.3        1 MOL1        -0.2871
      20    H11     17.492652   18.116260   19.325445 H          1 MOL1         0.0754
      21    H12     16.346457   17.549971   20.558138 H          1 MOL1         0.0754
      22    H13     17.813630   16.609582   20.214778 H          1 MOL1         0.0754
@<TRIPOS>BOND
    1     1     2    1
    2     1     3    2
    3     1     4    1
    4     4     5    1
    5     4     6    1
    6     4     7    1
    7     7     8    1
    8     7     9    1
    9     7    10    1
   10    10    11    1
   11    10    12    1
   12    10    13    1
   13    13    14    1
   14    13    15    1
   15    13    16    1
   16    16    17    1
   17    16    18    1
   18    16    19    1
   19    19    20    1
   20    19    21    1
   21    19    22    1
@<TRIPOS>SUBSTRUCTURE
       1 MOL1            1 RESIDUE      1      MOL     
@<SCITEGIC>MOL_PROPERTY
VConf Rank
SciTegic.value.IntegerValue
477

@<SCITEGIC>MOL_PROPERTY
Conf_Id
SciTegic.value.IntegerValue
85

@<SCITEGIC>MOL_PROPERTY
Delta U+W
SciTegic.value.DoubleValue
0.707

@<SCITEGIC>MOL_PROPERTY
U+W
SciTegic.value.DoubleValue
-52.452

@<SCITEGIC>MOL_PROPERTY
Grad RMS
SciTegic.value.DoubleValue
0.000000

@<SCITEGIC>MOL_PROPERTY
U
SciTegic.value.DoubleValue
8.925

@<SCITEGIC>MOL_PROPERTY
W
SciTegic.value.DoubleValue
-61.378

@<SCITEGIC>MOL_PROPERTY
W(PB)
SciTegic.value.DoubleValue
-63.661

@<SCITEGIC>MOL_PROPERTY
W(SA)
SciTegic.value.DoubleValue
2.283

@<SCITEGIC>MOL_PROPERTY
Valence
SciTegic.value.DoubleValue
7.881

@<SCITEGIC>MOL_PROPERTY
Coulomb
SciTegic.value.DoubleValue
0.349

@<SCITEGIC>MOL_PROPERTY
VdW
SciTegic.value.DoubleValue
0.695

@<SCITEGIC>MOL_PROPERTY
VdW6
SciTegic.value.DoubleValue
-8.049

@<SCITEGIC>MOL_PROPERTY
VdW12
SciTegic.value.DoubleValue
8.743

@<SCITEGIC>MOL_PROPERTY
Bond
SciTegic.value.DoubleValue
0.156

@<SCITEGIC>MOL_PROPERTY
Angle
SciTegic.value.DoubleValue
2.660

@<SCITEGIC>MOL_PROPERTY
Pdih
SciTegic.value.DoubleValue
5.064

@<SCITEGIC>MOL_PROPERTY
Idih
SciTegic.value.DoubleValue
0.001

@<SCITEGIC>MOL_PROPERTY
Tether
SciTegic.value.DoubleValue
0.000

@<TRIPOS>MOLECULE
guest-s21_confgen4.mol2 : confsearch ligand conformer 478
          22          21           1
SMALL
USER_CHARGES
 
@<TRIPOS>ATOM
       1    C1      17.082998   20.612186   23.009789 C.2        1 MOL1         0.6145
       2    O1      16.098386   19.903017   23.077323 O.co2      1 MOL1        -0.6735
       3    O2      17.347586   21.474107   23.824687 O.co2      1 MOL1        -0.6735
       4    C2      18.027790   20.427602   21.825437 C.3        1 MOL1        -0.1985
       5    H1      18.255020   21.424753   21.430407 H          1 MOL1         0.0740
       6    H2      17.496314   19.886002   21.033568 H          1 MOL1         0.0740
       7    C3      19.350197   19.697996   22.178426 C.3        1 MOL1        -0.1882
       8    H3      20.018587   19.755106   21.310152 H          1 MOL1         0.0742
       9    H4      19.848426   20.224359   23.004252 H          1 MOL1         0.0742
      10    C4      19.129078   18.215042   22.556625 C.3        1 MOL1        -0.1880
      11    H5      18.709686   17.677524   21.695297 H          1 MOL1         0.0742
      12    H6      18.374440   18.154381   23.352667 H          1 MOL1         0.0742
      13    C5      20.405419   17.486390   23.047079 C.3        1 MOL1        -0.1880
      14    H7      20.780953   17.960952   23.963972 H          1 MOL1         0.0742
      15    H8      20.112733   16.468015   23.337104 H          1 MOL1         0.0742
      16    C6      21.537517   17.380709   21.994897 C.3        1 MOL1        -0.1856
      17    H9      21.116626   17.387158   20.979998 H          1 MOL1         0.0742
      18    H10     22.036198   16.408675   22.112220 H          1 MOL1         0.0742
      19    C7      22.607512   18.485917   22.138613 C.3        1 MOL1        -0.2871
      20    H11     22.179387   19.487329   22.017012 H          1 MOL1         0.0754
      21    H12     23.391410   18.362164   21.380320 H          1 MOL1         0.0754
      22    H13     23.085457   18.439964   23.125803 H          1 MOL1         0.0754
@<TRIPOS>BOND
    1     1     2    1
    2     1     3    2
    3     1     4    1
    4     4     5    1
    5     4     6    1
    6     4     7    1
    7     7     8    1
    8     7     9    1
    9     7    10    1
   10    10    11    1
   11    10    12    1
   12    10    13    1
   13    13    14    1
   14    13    15    1
   15    13    16    1
   16    16    17    1
   17    16    18    1
   18    16    19    1
   19    19    20    1
   20    19    21    1
   21    19    22    1
@<TRIPOS>SUBSTRUCTURE
       1 MOL1            1 RESIDUE      1      MOL     
@<SCITEGIC>MOL_PROPERTY
VConf Rank
SciTegic.value.IntegerValue
478

@<SCITEGIC>MOL_PROPERTY
Conf_Id
SciTegic.value.IntegerValue
82

@<SCITEGIC>MOL_PROPERTY
Delta U+W
SciTegic.value.DoubleValue
3.438

@<SCITEGIC>MOL_PROPERTY
U+W
SciTegic.value.DoubleValue
-49.721

@<SCITEGIC>MOL_PROPERTY
Grad RMS
SciTegic.value.DoubleValue
0.000000

@<SCITEGIC>MOL_PROPERTY
U
SciTegic.value.DoubleValue
11.773

@<SCITEGIC>MOL_PROPERTY
W
SciTegic.value.DoubleValue
-61.495

@<SCITEGIC>MOL_PROPERTY
W(PB)
SciTegic.value.DoubleValue
-63.749

@<SCITEGIC>MOL_PROPERTY
W(SA)
SciTegic.value.DoubleValue
2.254

@<SCITEGIC>MOL_PROPERTY
Valence
SciTegic.value.DoubleValue
10.419

@<SCITEGIC>MOL_PROPERTY
Coulomb
SciTegic.value.DoubleValue
0.565

@<SCITEGIC>MOL_PROPERTY
VdW
SciTegic.value.DoubleValue
0.789

@<SCITEGIC>MOL_PROPERTY
VdW6
SciTegic.value.DoubleValue
-8.847

@<SCITEGIC>MOL_PROPERTY
VdW12
SciTegic.value.DoubleValue
9.636

@<SCITEGIC>MOL_PROPERTY
Bond
SciTegic.value.DoubleValue
0.200

@<SCITEGIC>MOL_PROPERTY
Angle
SciTegic.value.DoubleValue
3.187

@<SCITEGIC>MOL_PROPERTY
Pdih
SciTegic.value.DoubleValue
7.032

@<SCITEGIC>MOL_PROPERTY
Idih
SciTegic.value.DoubleValue
0.001

@<SCITEGIC>MOL_PROPERTY
Tether
SciTegic.value.DoubleValue
0.000

@<TRIPOS>MOLECULE
guest-s21_confgen4.mol2 : confsearch ligand conformer 479
          22          21           1
SMALL
USER_CHARGES
 
@<TRIPOS>ATOM
       1    C1      22.286335   16.928443   21.092268 C.2        1 MOL1         0.6145
       2    O1      21.765697   15.884137   20.752659 O.co2      1 MOL1        -0.6735
       3    O2      23.078061   17.540155   20.402400 O.co2      1 MOL1        -0.6735
       4    C2      21.943541   17.488425   22.470060 C.3        1 MOL1        -0.1985
       5    H1      22.720087   18.206511   22.760209 H          1 MOL1         0.0740
       6    H2      21.997498   16.657341   23.183067 H          1 MOL1         0.0740
       7    C3      20.543583   18.150863   22.553638 C.3        1 MOL1        -0.1882
       8    H3      19.780640   17.436072   22.215600 H          1 MOL1         0.0742
       9    H4      20.330276   18.376010   23.606119 H          1 MOL1         0.0742
      10    C4      20.450408   19.452113   21.723489 C.3        1 MOL1        -0.1880
      11    H5      20.772233   19.246723   20.693399 H          1 MOL1         0.0742
      12    H6      21.157390   20.191532   22.123661 H          1 MOL1         0.0742
      13    C5      19.031590   20.072262   21.669673 C.3        1 MOL1        -0.1880
      14    H7      19.080415   20.950372   21.011338 H          1 MOL1         0.0742
      15    H8      18.334211   19.375166   21.185271 H          1 MOL1         0.0742
      16    C6      18.469952   20.528222   23.039550 C.3        1 MOL1        -0.1856
      17    H9      17.889947   21.449705   22.892030 H          1 MOL1         0.0742
      18    H10     19.291541   20.790530   23.720283 H          1 MOL1         0.0742
      19    C7      17.542847   19.481364   23.696506 C.3        1 MOL1        -0.2871
      20    H11     16.678965   19.267572   23.053787 H          1 MOL1         0.0754
      21    H12     17.162707   19.853964   24.656445 H          1 MOL1         0.0754
      22    H13     18.064045   18.536401   23.887033 H          1 MOL1         0.0754
@<TRIPOS>BOND
    1     1     2    1
    2     1     3    2
    3     1     4    1
    4     4     5    1
    5     4     6    1
    6     4     7    1
    7     7     8    1
    8     7     9    1
    9     7    10    1
   10    10    11    1
   11    10    12    1
   12    10    13    1
   13    13    14    1
   14    13    15    1
   15    13    16    1
   16    16    17    1
   17    16    18    1
   18    16    19    1
   19    19    20    1
   20    19    21    1
   21    19    22    1
@<TRIPOS>SUBSTRUCTURE
       1 MOL1            1 RESIDUE      1      MOL     
@<SCITEGIC>MOL_PROPERTY
VConf Rank
SciTegic.value.IntegerValue
479

@<SCITEGIC>MOL_PROPERTY
Conf_Id
SciTegic.value.IntegerValue
94

@<SCITEGIC>MOL_PROPERTY
Delta U+W
SciTegic.value.DoubleValue
3.471

@<SCITEGIC>MOL_PROPERTY
U+W
SciTegic.value.DoubleValue
-49.688

@<SCITEGIC>MOL_PROPERTY
Grad RMS
SciTegic.value.DoubleValue
0.000000

@<SCITEGIC>MOL_PROPERTY
U
SciTegic.value.DoubleValue
11.773

@<SCITEGIC>MOL_PROPERTY
W
SciTegic.value.DoubleValue
-61.461

@<SCITEGIC>MOL_PROPERTY
W(PB)
SciTegic.value.DoubleValue
-63.710

@<SCITEGIC>MOL_PROPERTY
W(SA)
SciTegic.value.DoubleValue
2.248

@<SCITEGIC>MOL_PROPERTY
Valence
SciTegic.value.DoubleValue
10.419

@<SCITEGIC>MOL_PROPERTY
Coulomb
SciTegic.value.DoubleValue
0.566

@<SCITEGIC>MOL_PROPERTY
VdW
SciTegic.value.DoubleValue
0.789

@<SCITEGIC>MOL_PROPERTY
VdW6
SciTegic.value.DoubleValue
-8.847

@<SCITEGIC>MOL_PROPERTY
VdW12
SciTegic.value.DoubleValue
9.636

@<SCITEGIC>MOL_PROPERTY
Bond
SciTegic.value.DoubleValue
0.200

@<SCITEGIC>MOL_PROPERTY
Angle
SciTegic.value.DoubleValue
3.187

@<SCITEGIC>MOL_PROPERTY
Pdih
SciTegic.value.DoubleValue
7.032

@<SCITEGIC>MOL_PROPERTY
Idih
SciTegic.value.DoubleValue
0.001

@<SCITEGIC>MOL_PROPERTY
Tether
SciTegic.value.DoubleValue
0.000

@<TRIPOS>MOLECULE
guest-s21_confgen4.mol2 : confsearch ligand conformer 480
          22          21           1
SMALL
USER_CHARGES
 
@<TRIPOS>ATOM
       1    C1      20.242500   15.955011   23.408849 C.2        1 MOL1         0.6145
       2    O1      19.669044   15.290652   24.249370 O.co2      1 MOL1        -0.6735
       3    O2      21.407315   15.792913   23.103065 O.co2      1 MOL1        -0.6735
       4    C2      19.462696   17.065354   22.713884 C.3        1 MOL1        -0.1985
       5    H1      18.415630   16.749457   22.635809 H          1 MOL1         0.0740
       6    H2      19.851997   17.158402   21.693678 H          1 MOL1         0.0740
       7    C3      19.557985   18.422235   23.458362 C.3        1 MOL1        -0.1882
       8    H3      19.238597   18.276823   24.499489 H          1 MOL1         0.0742
       9    H4      20.607107   18.743210   23.504660 H          1 MOL1         0.0742
      10    C4      18.687448   19.536877   22.825784 C.3        1 MOL1        -0.1880
      11    H5      18.770129   20.443391   23.439681 H          1 MOL1         0.0742
      12    H6      17.632336   19.236397   22.880507 H          1 MOL1         0.0742
      13    C5      19.027177   19.883887   21.352239 C.3        1 MOL1        -0.1880
      14    H7      18.788360   19.024623   20.712017 H          1 MOL1         0.0742
      15    H8      18.362649   20.693517   21.021410 H          1 MOL1         0.0742
      16    C6      20.494459   20.307664   21.096457 C.3        1 MOL1        -0.1856
      17    H9      20.621022   20.501120   20.022462 H          1 MOL1         0.0742
      18    H10     21.174752   19.480187   21.338297 H          1 MOL1         0.0742
      19    C7      20.910092   21.570690   21.881197 C.3        1 MOL1        -0.2871
      20    H11     20.232417   22.407135   21.666559 H          1 MOL1         0.0754
      21    H12     21.926544   21.878323   21.603829 H          1 MOL1         0.0754
      22    H13     20.900908   21.388498   22.963176 H          1 MOL1         0.0754
@<TRIPOS>BOND
    1     1     2    1
    2     1     3    2
    3     1     4    1
    4     4     5    1
    5     4     6    1
    6     4     7    1
    7     7     8    1
    8     7     9    1
    9     7    10    1
   10    10    11    1
   11    10    12    1
   12    10    13    1
   13    13    14    1
   14    13    15    1
   15    13    16    1
   16    16    17    1
   17    16    18    1
   18    16    19    1
   19    19    20    1
   20    19    21    1
   21    19    22    1
@<TRIPOS>SUBSTRUCTURE
       1 MOL1            1 RESIDUE      1      MOL     
@<SCITEGIC>MOL_PROPERTY
VConf Rank
SciTegic.value.IntegerValue
480

@<SCITEGIC>MOL_PROPERTY
Conf_Id
SciTegic.value.IntegerValue
56

@<SCITEGIC>MOL_PROPERTY
Delta U+W
SciTegic.value.DoubleValue
0.853

@<SCITEGIC>MOL_PROPERTY
U+W
SciTegic.value.DoubleValue
-52.307

@<SCITEGIC>MOL_PROPERTY
Grad RMS
SciTegic.value.DoubleValue
0.000000

@<SCITEGIC>MOL_PROPERTY
U
SciTegic.value.DoubleValue
8.874

@<SCITEGIC>MOL_PROPERTY
W
SciTegic.value.DoubleValue
-61.181

@<SCITEGIC>MOL_PROPERTY
W(PB)
SciTegic.value.DoubleValue
-63.413

@<SCITEGIC>MOL_PROPERTY
W(SA)
SciTegic.value.DoubleValue
2.232

@<SCITEGIC>MOL_PROPERTY
Valence
SciTegic.value.DoubleValue
8.479

@<SCITEGIC>MOL_PROPERTY
Coulomb
SciTegic.value.DoubleValue
-0.357

@<SCITEGIC>MOL_PROPERTY
VdW
SciTegic.value.DoubleValue
0.753

@<SCITEGIC>MOL_PROPERTY
VdW6
SciTegic.value.DoubleValue
-9.081

@<SCITEGIC>MOL_PROPERTY
VdW12
SciTegic.value.DoubleValue
9.833

@<SCITEGIC>MOL_PROPERTY
Bond
SciTegic.value.DoubleValue
0.221

@<SCITEGIC>MOL_PROPERTY
Angle
SciTegic.value.DoubleValue
3.208

@<SCITEGIC>MOL_PROPERTY
Pdih
SciTegic.value.DoubleValue
5.050

@<SCITEGIC>MOL_PROPERTY
Idih
SciTegic.value.DoubleValue
0.000

@<SCITEGIC>MOL_PROPERTY
Tether
SciTegic.value.DoubleValue
0.000

@<TRIPOS>MOLECULE
guest-s21_confgen4.mol2 : confsearch ligand conformer 481
          22          21           1
SMALL
USER_CHARGES
 
@<TRIPOS>ATOM
       1    C1      23.615775   19.866940   23.261387 C.2        1 MOL1         0.6145
       2    O1      24.020780   18.741164   23.044587 O.co2      1 MOL1        -0.6735
       3    O2      24.329855   20.762240   23.666910 O.co2      1 MOL1        -0.6735
       4    C2      22.142857   20.202854   23.022221 C.3        1 MOL1        -0.1985
       5    H1      22.108781   21.033032   22.306950 H          1 MOL1         0.0740
       6    H2      21.735112   20.577534   23.968438 H          1 MOL1         0.0740
       7    C3      21.271049   19.028161   22.504096 C.3        1 MOL1        -0.1882
       8    H3      21.688609   18.653479   21.559243 H          1 MOL1         0.0742
       9    H4      21.314443   18.197638   23.222314 H          1 MOL1         0.0742
      10    C4      19.802189   19.453908   22.290319 C.3        1 MOL1        -0.1880
      11    H5      19.761362   20.284251   21.571993 H          1 MOL1         0.0742
      12    H6      19.386979   19.828226   23.236161 H          1 MOL1         0.0742
      13    C5      18.936754   18.283948   21.775030 C.3        1 MOL1        -0.1880
      14    H7      19.351620   17.909239   20.829194 H          1 MOL1         0.0742
      15    H8      18.977247   17.453347   22.493076 H          1 MOL1         0.0742
      16    C6      17.468789   18.708713   21.561119 C.3        1 MOL1        -0.1856
      17    H9      17.424121   19.538167   20.841753 H          1 MOL1         0.0742
      18    H10     17.049744   19.082333   22.505727 H          1 MOL1         0.0742
      19    C7      16.607919   17.537593   21.046614 C.3        1 MOL1        -0.2871
      20    H11     16.986361   17.164323   20.085959 H          1 MOL1         0.0754
      21    H12     15.567938   17.857074   20.900109 H          1 MOL1         0.0754
      22    H13     16.609123   16.705112   21.762422 H          1 MOL1         0.0754
@<TRIPOS>BOND
    1     1     2    1
    2     1     3    2
    3     1     4    1
    4     4     5    1
    5     4     6    1
    6     4     7    1
    7     7     8    1
    8     7     9    1
    9     7    10    1
   10    10    11    1
   11    10    12    1
   12    10    13    1
   13    13    14    1
   14    13    15    1
   15    13    16    1
   16    16    17    1
   17    16    18    1
   18    16    19    1
   19    19    20    1
   20    19    21    1
   21    19    22    1
@<TRIPOS>SUBSTRUCTURE
       1 MOL1            1 RESIDUE      1      MOL     
@<SCITEGIC>MOL_PROPERTY
VConf Rank
SciTegic.value.IntegerValue
481

@<SCITEGIC>MOL_PROPERTY
Conf_Id
SciTegic.value.IntegerValue
0

@<SCITEGIC>MOL_PROPERTY
Delta U+W
SciTegic.value.DoubleValue
0.000

@<SCITEGIC>MOL_PROPERTY
U+W
SciTegic.value.DoubleValue
-53.159

@<SCITEGIC>MOL_PROPERTY
Grad RMS
SciTegic.value.DoubleValue
0.000000

@<SCITEGIC>MOL_PROPERTY
U
SciTegic.value.DoubleValue
6.763

@<SCITEGIC>MOL_PROPERTY
W
SciTegic.value.DoubleValue
-59.922

@<SCITEGIC>MOL_PROPERTY
W(PB)
SciTegic.value.DoubleValue
-62.256

@<SCITEGIC>MOL_PROPERTY
W(SA)
SciTegic.value.DoubleValue
2.334

@<SCITEGIC>MOL_PROPERTY
Valence
SciTegic.value.DoubleValue
7.600

@<SCITEGIC>MOL_PROPERTY
Coulomb
SciTegic.value.DoubleValue
-2.139

@<SCITEGIC>MOL_PROPERTY
VdW
SciTegic.value.DoubleValue
1.302

@<SCITEGIC>MOL_PROPERTY
VdW6
SciTegic.value.DoubleValue
-6.786

@<SCITEGIC>MOL_PROPERTY
VdW12
SciTegic.value.DoubleValue
8.088

@<SCITEGIC>MOL_PROPERTY
Bond
SciTegic.value.DoubleValue
0.134

@<SCITEGIC>MOL_PROPERTY
Angle
SciTegic.value.DoubleValue
2.720

@<SCITEGIC>MOL_PROPERTY
Pdih
SciTegic.value.DoubleValue
4.746

@<SCITEGIC>MOL_PROPERTY
Idih
SciTegic.value.DoubleValue
0.000

@<SCITEGIC>MOL_PROPERTY
Tether
SciTegic.value.DoubleValue
0.000

@<TRIPOS>MOLECULE
guest-s21_confgen4.mol2 : confsearch ligand conformer 482
          22          21           1
SMALL
USER_CHARGES
 
@<TRIPOS>ATOM
       1    C1      17.222204   18.314427   19.149811 C.2        1 MOL1         0.6145
       2    O1      16.384046   17.466830   19.385398 O.co2      1 MOL1        -0.6735
       3    O2      17.684945   18.514439   18.044236 O.co2      1 MOL1        -0.6735
       4    C2      17.738165   19.158618   20.309699 C.3        1 MOL1        -0.1985
       5    H1      16.918936   19.289144   21.026977 H          1 MOL1         0.0740
       6    H2      17.990789   20.152724   19.921631 H          1 MOL1         0.0740
       7    C3      18.967586   18.530294   21.010972 C.3        1 MOL1        -0.1882
       8    H3      18.702050   17.530648   21.382146 H          1 MOL1         0.0742
       9    H4      19.773870   18.394203   20.276834 H          1 MOL1         0.0742
      10    C4      19.470559   19.403394   22.180841 C.3        1 MOL1        -0.1880
      11    H5      18.661855   19.538486   22.912225 H          1 MOL1         0.0742
      12    H6      19.733914   20.402285   21.806633 H          1 MOL1         0.0742
      13    C5      20.696106   18.774590   22.877931 C.3        1 MOL1        -0.1880
      14    H7      20.433158   17.775666   23.252275 H          1 MOL1         0.0742
      15    H8      21.505042   18.639320   22.146869 H          1 MOL1         0.0742
      16    C6      21.199385   19.646616   24.047268 C.3        1 MOL1        -0.1856
      17    H9      20.393446   19.782536   24.781750 H          1 MOL1         0.0742
      18    H10     21.465320   20.646203   23.676350 H          1 MOL1         0.0742
      19    C7      22.423250   19.015282   24.740748 C.3        1 MOL1        -0.2871
      20    H11     23.256483   18.896800   24.035700 H          1 MOL1         0.0754
      21    H12     22.176548   18.026528   25.149294 H          1 MOL1         0.0754
      22    H13     22.767620   19.647950   25.569140 H          1 MOL1         0.0754
@<TRIPOS>BOND
    1     1     2    1
    2     1     3    2
    3     1     4    1
    4     4     5    1
    5     4     6    1
    6     4     7    1
    7     7     8    1
    8     7     9    1
    9     7    10    1
   10    10    11    1
   11    10    12    1
   12    10    13    1
   13    13    14    1
   14    13    15    1
   15    13    16    1
   16    16    17    1
   17    16    18    1
   18    16    19    1
   19    19    20    1
   20    19    21    1
   21    19    22    1
@<TRIPOS>SUBSTRUCTURE
       1 MOL1            1 RESIDUE      1      MOL     
@<SCITEGIC>MOL_PROPERTY
VConf Rank
SciTegic.value.IntegerValue
482

@<SCITEGIC>MOL_PROPERTY
Conf_Id
SciTegic.value.IntegerValue
10

@<SCITEGIC>MOL_PROPERTY
Delta U+W
SciTegic.value.DoubleValue
-1.291

@<SCITEGIC>MOL_PROPERTY
U+W
SciTegic.value.DoubleValue
-54.451

@<SCITEGIC>MOL_PROPERTY
Grad RMS
SciTegic.value.DoubleValue
0.000000

@<SCITEGIC>MOL_PROPERTY
U
SciTegic.value.DoubleValue
5.779

@<SCITEGIC>MOL_PROPERTY
W
SciTegic.value.DoubleValue
-60.230

@<SCITEGIC>MOL_PROPERTY
W(PB)
SciTegic.value.DoubleValue
-62.557

@<SCITEGIC>MOL_PROPERTY
W(SA)
SciTegic.value.DoubleValue
2.328

@<SCITEGIC>MOL_PROPERTY
Valence
SciTegic.value.DoubleValue
7.101

@<SCITEGIC>MOL_PROPERTY
Coulomb
SciTegic.value.DoubleValue
-2.079

@<SCITEGIC>MOL_PROPERTY
VdW
SciTegic.value.DoubleValue
0.757

@<SCITEGIC>MOL_PROPERTY
VdW6
SciTegic.value.DoubleValue
-6.496

@<SCITEGIC>MOL_PROPERTY
VdW12
SciTegic.value.DoubleValue
7.253

@<SCITEGIC>MOL_PROPERTY
Bond
SciTegic.value.DoubleValue
0.100

@<SCITEGIC>MOL_PROPERTY
Angle
SciTegic.value.DoubleValue
2.262

@<SCITEGIC>MOL_PROPERTY
Pdih
SciTegic.value.DoubleValue
4.738

@<SCITEGIC>MOL_PROPERTY
Idih
SciTegic.value.DoubleValue
0.001

@<SCITEGIC>MOL_PROPERTY
Tether
SciTegic.value.DoubleValue
0.000

@<TRIPOS>MOLECULE
guest-s21_confgen4.mol2 : confsearch ligand conformer 483
          22          21           1
SMALL
USER_CHARGES
 
@<TRIPOS>ATOM
       1    C1      18.150822   22.311607   21.341190 C.2        1 MOL1         0.6145
       2    O1      17.266850   22.185785   20.517046 O.co2      1 MOL1        -0.6735
       3    O2      18.177357   23.200416   22.169303 O.co2      1 MOL1        -0.6735
       4    C2      19.278110   21.285279   21.350249 C.3        1 MOL1        -0.1985
       5    H1      20.194924   21.788960   21.679494 H          1 MOL1         0.0740
       6    H2      19.443835   20.952065   20.318667 H          1 MOL1         0.0740
       7    C3      18.978645   20.070431   22.262726 C.3        1 MOL1        -0.1882
       8    H3      18.802011   20.422395   23.288608 H          1 MOL1         0.0742
       9    H4      18.051551   19.584722   21.927859 H          1 MOL1         0.0742
      10    C4      20.134442   19.046512   22.254489 C.3        1 MOL1        -0.1880
      11    H5      21.059279   19.534234   22.591622 H          1 MOL1         0.0742
      12    H6      20.307048   18.707132   21.224832 H          1 MOL1         0.0742
      13    C5      19.829067   17.834085   23.163900 C.3        1 MOL1        -0.1880
      14    H7      19.589464   18.195736   24.173222 H          1 MOL1         0.0742
      15    H8      18.932901   17.313877   22.798930 H          1 MOL1         0.0742
      16    C6      21.002389   16.832118   23.267274 C.3        1 MOL1        -0.1856
      17    H9      20.750057   16.070172   24.017609 H          1 MOL1         0.0742
      18    H10     21.899083   17.347614   23.638102 H          1 MOL1         0.0742
      19    C7      21.323593   16.126933   21.931702 C.3        1 MOL1        -0.2871
      20    H11     22.100089   15.364831   22.077221 H          1 MOL1         0.0754
      21    H12     21.692700   16.837689   21.181843 H          1 MOL1         0.0754
      22    H13     20.433207   15.629052   21.526165 H          1 MOL1         0.0754
@<TRIPOS>BOND
    1     1     2    1
    2     1     3    2
    3     1     4    1
    4     4     5    1
    5     4     6    1
    6     4     7    1
    7     7     8    1
    8     7     9    1
    9     7    10    1
   10    10    11    1
   11    10    12    1
   12    10    13    1
   13    13    14    1
   14    13    15    1
   15    13    16    1
   16    16    17    1
   17    16    18    1
   18    16    19    1
   19    19    20    1
   20    19    21    1
   21    19    22    1
@<TRIPOS>SUBSTRUCTURE
       1 MOL1            1 RESIDUE      1      MOL     
@<SCITEGIC>MOL_PROPERTY
VConf Rank
SciTegic.value.IntegerValue
483

@<SCITEGIC>MOL_PROPERTY
Conf_Id
SciTegic.value.IntegerValue
37

@<SCITEGIC>MOL_PROPERTY
Delta U+W
SciTegic.value.DoubleValue
-0.345

@<SCITEGIC>MOL_PROPERTY
U+W
SciTegic.value.DoubleValue
-53.504

@<SCITEGIC>MOL_PROPERTY
Grad RMS
SciTegic.value.DoubleValue
0.000000

@<SCITEGIC>MOL_PROPERTY
U
SciTegic.value.DoubleValue
6.751

@<SCITEGIC>MOL_PROPERTY
W
SciTegic.value.DoubleValue
-60.255

@<SCITEGIC>MOL_PROPERTY
W(PB)
SciTegic.value.DoubleValue
-62.592

@<SCITEGIC>MOL_PROPERTY
W(SA)
SciTegic.value.DoubleValue
2.336

@<SCITEGIC>MOL_PROPERTY
Valence
SciTegic.value.DoubleValue
7.602

@<SCITEGIC>MOL_PROPERTY
Coulomb
SciTegic.value.DoubleValue
-1.744

@<SCITEGIC>MOL_PROPERTY
VdW
SciTegic.value.DoubleValue
0.894

@<SCITEGIC>MOL_PROPERTY
VdW6
SciTegic.value.DoubleValue
-7.110

@<SCITEGIC>MOL_PROPERTY
VdW12
SciTegic.value.DoubleValue
8.004

@<SCITEGIC>MOL_PROPERTY
Bond
SciTegic.value.DoubleValue
0.131

@<SCITEGIC>MOL_PROPERTY
Angle
SciTegic.value.DoubleValue
2.489

@<SCITEGIC>MOL_PROPERTY
Pdih
SciTegic.value.DoubleValue
4.982

@<SCITEGIC>MOL_PROPERTY
Idih
SciTegic.value.DoubleValue
0.001

@<SCITEGIC>MOL_PROPERTY
Tether
SciTegic.value.DoubleValue
0.000

@<TRIPOS>MOLECULE
guest-s21_confgen4.mol2 : confsearch ligand conformer 484
          22          21           1
SMALL
USER_CHARGES
 
@<TRIPOS>ATOM
       1    C1      17.659318   17.617655   25.152859 C.2        1 MOL1         0.6145
       2    O1      16.656635   18.274149   25.353097 O.co2      1 MOL1        -0.6735
       3    O2      18.219945   16.966263   26.011836 O.co2      1 MOL1        -0.6735
       4    C2      18.259509   17.629214   23.751486 C.3        1 MOL1        -0.1985
       5    H1      17.439594   17.732081   23.030504 H          1 MOL1         0.0740
       6    H2      18.727552   16.653623   23.573152 H          1 MOL1         0.0740
       7    C3      19.294409   18.763354   23.549337 C.3        1 MOL1        -0.1882
       8    H3      18.813699   19.732250   23.743517 H          1 MOL1         0.0742
       9    H4      20.101170   18.653736   24.287329 H          1 MOL1         0.0742
      10    C4      19.887109   18.753369   22.123519 C.3        1 MOL1        -0.1880
      11    H5      19.072639   18.856063   21.394643 H          1 MOL1         0.0742
      12    H6      20.368842   17.784600   21.933060 H          1 MOL1         0.0742
      13    C5      20.916638   19.889671   21.925648 C.3        1 MOL1        -0.1880
      14    H7      20.425804   20.862531   22.065509 H          1 MOL1         0.0742
      15    H8      21.686321   19.814495   22.705950 H          1 MOL1         0.0742
      16    C6      21.612432   19.855373   20.545066 C.3        1 MOL1        -0.1856
      17    H9      22.110060   18.885920   20.404222 H          1 MOL1         0.0742
      18    H10     22.405279   20.615921   20.531045 H          1 MOL1         0.0742
      19    C7      20.648821   20.120487   19.368045 C.3        1 MOL1        -0.2871
      20    H11     20.116943   21.071405   19.502192 H          1 MOL1         0.0754
      21    H12     19.904786   19.320036   19.271125 H          1 MOL1         0.0754
      22    H13     21.203722   20.174150   18.422463 H          1 MOL1         0.0754
@<TRIPOS>BOND
    1     1     2    1
    2     1     3    2
    3     1     4    1
    4     4     5    1
    5     4     6    1
    6     4     7    1
    7     7     8    1
    8     7     9    1
    9     7    10    1
   10    10    11    1
   11    10    12    1
   12    10    13    1
   13    13    14    1
   14    13    15    1
   15    13    16    1
   16    16    17    1
   17    16    18    1
   18    16    19    1
   19    19    20    1
   20    19    21    1
   21    19    22    1
@<TRIPOS>SUBSTRUCTURE
       1 MOL1            1 RESIDUE      1      MOL     
@<SCITEGIC>MOL_PROPERTY
VConf Rank
SciTegic.value.IntegerValue
484

@<SCITEGIC>MOL_PROPERTY
Conf_Id
SciTegic.value.IntegerValue
38

@<SCITEGIC>MOL_PROPERTY
Delta U+W
SciTegic.value.DoubleValue
-0.439

@<SCITEGIC>MOL_PROPERTY
U+W
SciTegic.value.DoubleValue
-53.598

@<SCITEGIC>MOL_PROPERTY
Grad RMS
SciTegic.value.DoubleValue
0.000000

@<SCITEGIC>MOL_PROPERTY
U
SciTegic.value.DoubleValue
6.751

@<SCITEGIC>MOL_PROPERTY
W
SciTegic.value.DoubleValue
-60.350

@<SCITEGIC>MOL_PROPERTY
W(PB)
SciTegic.value.DoubleValue
-62.659

@<SCITEGIC>MOL_PROPERTY
W(SA)
SciTegic.value.DoubleValue
2.309

@<SCITEGIC>MOL_PROPERTY
Valence
SciTegic.value.DoubleValue
7.602

@<SCITEGIC>MOL_PROPERTY
Coulomb
SciTegic.value.DoubleValue
-1.744

@<SCITEGIC>MOL_PROPERTY
VdW
SciTegic.value.DoubleValue
0.893

@<SCITEGIC>MOL_PROPERTY
VdW6
SciTegic.value.DoubleValue
-7.110

@<SCITEGIC>MOL_PROPERTY
VdW12
SciTegic.value.DoubleValue
8.004

@<SCITEGIC>MOL_PROPERTY
Bond
SciTegic.value.DoubleValue
0.131

@<SCITEGIC>MOL_PROPERTY
Angle
SciTegic.value.DoubleValue
2.489

@<SCITEGIC>MOL_PROPERTY
Pdih
SciTegic.value.DoubleValue
4.981

@<SCITEGIC>MOL_PROPERTY
Idih
SciTegic.value.DoubleValue
0.001

@<SCITEGIC>MOL_PROPERTY
Tether
SciTegic.value.DoubleValue
0.000

@<TRIPOS>MOLECULE
guest-s21_confgen4.mol2 : confsearch ligand conformer 485
          22          21           1
SMALL
USER_CHARGES
 
@<TRIPOS>ATOM
       1    C1      21.971982   22.061276   21.514894 C.2        1 MOL1         0.6145
       2    O1      21.584067   23.200605   21.682258 O.co2      1 MOL1        -0.6735
       3    O2      22.898384   21.766325   20.785980 O.co2      1 MOL1        -0.6735
       4    C2      21.241531   20.937881   22.242021 C.3        1 MOL1        -0.1985
       5    H1      20.876678   21.332435   23.197858 H          1 MOL1         0.0740
       6    H2      21.975754   20.157470   22.470797 H          1 MOL1         0.0740
       7    C3      20.062782   20.357356   21.417914 C.3        1 MOL1        -0.1882
       8    H3      19.399731   21.182967   21.124357 H          1 MOL1         0.0742
       9    H4      20.445989   19.921283   20.485023 H          1 MOL1         0.0742
      10    C4      19.228971   19.302937   22.184518 C.3        1 MOL1        -0.1880
      11    H5      18.346479   19.062064   21.578286 H          1 MOL1         0.0742
      12    H6      18.854508   19.739455   23.120411 H          1 MOL1         0.0742
      13    C5      20.012662   18.002929   22.490837 C.3        1 MOL1        -0.1880
      14    H7      20.388584   17.567494   21.555005 H          1 MOL1         0.0742
      15    H8      20.893791   18.241913   23.099588 H          1 MOL1         0.0742
      16    C6      19.177540   16.947677   23.253156 C.3        1 MOL1        -0.1856
      17    H9      18.790000   17.383019   24.184597 H          1 MOL1         0.0742
      18    H10     19.839898   16.122437   23.548972 H          1 MOL1         0.0742
      19    C7      18.010098   16.371278   22.422797 C.3        1 MOL1        -0.2871
      20    H11     17.255306   17.137001   22.205123 H          1 MOL1         0.0754
      21    H12     17.511985   15.561943   22.972141 H          1 MOL1         0.0754
      22    H13     18.370236   15.961091   21.470342 H          1 MOL1         0.0754
@<TRIPOS>BOND
    1     1     2    1
    2     1     3    2
    3     1     4    1
    4     4     5    1
    5     4     6    1
    6     4     7    1
    7     7     8    1
    8     7     9    1
    9     7    10    1
   10    10    11    1
   11    10    12    1
   12    10    13    1
   13    13    14    1
   14    13    15    1
   15    13    16    1
   16    16    17    1
   17    16    18    1
   18    16    19    1
   19    19    20    1
   20    19    21    1
   21    19    22    1
@<TRIPOS>SUBSTRUCTURE
       1 MOL1            1 RESIDUE      1      MOL     
@<SCITEGIC>MOL_PROPERTY
VConf Rank
SciTegic.value.IntegerValue
485

@<SCITEGIC>MOL_PROPERTY
Conf_Id
SciTegic.value.IntegerValue
60

@<SCITEGIC>MOL_PROPERTY
Delta U+W
SciTegic.value.DoubleValue
0.386

@<SCITEGIC>MOL_PROPERTY
U+W
SciTegic.value.DoubleValue
-52.773

@<SCITEGIC>MOL_PROPERTY
Grad RMS
SciTegic.value.DoubleValue
0.000000

@<SCITEGIC>MOL_PROPERTY
U
SciTegic.value.DoubleValue
7.689

@<SCITEGIC>MOL_PROPERTY
W
SciTegic.value.DoubleValue
-60.463

@<SCITEGIC>MOL_PROPERTY
W(PB)
SciTegic.value.DoubleValue
-62.772

@<SCITEGIC>MOL_PROPERTY
W(SA)
SciTegic.value.DoubleValue
2.309

@<SCITEGIC>MOL_PROPERTY
Valence
SciTegic.value.DoubleValue
8.197

@<SCITEGIC>MOL_PROPERTY
Coulomb
SciTegic.value.DoubleValue
-1.561

@<SCITEGIC>MOL_PROPERTY
VdW
SciTegic.value.DoubleValue
1.053

@<SCITEGIC>MOL_PROPERTY
VdW6
SciTegic.value.DoubleValue
-7.737

@<SCITEGIC>MOL_PROPERTY
VdW12
SciTegic.value.DoubleValue
8.790

@<SCITEGIC>MOL_PROPERTY
Bond
SciTegic.value.DoubleValue
0.181

@<SCITEGIC>MOL_PROPERTY
Angle
SciTegic.value.DoubleValue
2.780

@<SCITEGIC>MOL_PROPERTY
Pdih
SciTegic.value.DoubleValue
5.235

@<SCITEGIC>MOL_PROPERTY
Idih
SciTegic.value.DoubleValue
0.001

@<SCITEGIC>MOL_PROPERTY
Tether
SciTegic.value.DoubleValue
0.000

@<TRIPOS>MOLECULE
guest-s21_confgen4.mol2 : confsearch ligand conformer 486
          22          21           1
SMALL
USER_CHARGES
 
@<TRIPOS>ATOM
       1    C1      18.069874   15.791629   21.156775 C.2        1 MOL1         0.6145
       2    O1      17.793257   15.853012   19.975145 O.co2      1 MOL1        -0.6735
       3    O2      17.541967   15.019018   21.931983 O.co2      1 MOL1        -0.6735
       4    C2      19.120962   16.752285   21.701423 C.3        1 MOL1        -0.1985
       5    H1      19.857535   16.923398   20.908554 H          1 MOL1         0.0740
       6    H2      19.641485   16.253737   22.527814 H          1 MOL1         0.0740
       7    C3      18.513061   18.094970   22.184401 C.3        1 MOL1        -0.1882
       8    H3      18.036842   18.608591   21.337817 H          1 MOL1         0.0742
       9    H4      17.712516   17.878518   22.905320 H          1 MOL1         0.0742
      10    C4      19.541364   19.036301   22.856120 C.3        1 MOL1        -0.1880
      11    H5      20.021361   18.517021   23.696726 H          1 MOL1         0.0742
      12    H6      18.994293   19.885030   23.285890 H          1 MOL1         0.0742
      13    C5      20.622762   19.562585   21.880610 C.3        1 MOL1        -0.1880
      14    H7      21.172720   18.715036   21.452490 H          1 MOL1         0.0742
      15    H8      20.142542   20.080193   21.039080 H          1 MOL1         0.0742
      16    C6      21.647601   20.506948   22.551427 C.3        1 MOL1        -0.1856
      17    H9      22.449837   20.722410   21.832234 H          1 MOL1         0.0742
      18    H10     22.122001   19.996724   23.401080 H          1 MOL1         0.0742
      19    C7      21.034443   21.843409   23.023193 C.3        1 MOL1        -0.2871
      20    H11     20.524260   22.355145   22.196776 H          1 MOL1         0.0754
      21    H12     21.818186   22.512151   23.401940 H          1 MOL1         0.0754
      22    H13     20.310584   21.689771   23.833039 H          1 MOL1         0.0754
@<TRIPOS>BOND
    1     1     2    1
    2     1     3    2
    3     1     4    1
    4     4     5    1
    5     4     6    1
    6     4     7    1
    7     7     8    1
    8     7     9    1
    9     7    10    1
   10    10    11    1
   11    10    12    1
   12    10    13    1
   13    13    14    1
   14    13    15    1
   15    13    16    1
   16    16    17    1
   17    16    18    1
   18    16    19    1
   19    19    20    1
   20    19    21    1
   21    19    22    1
@<TRIPOS>SUBSTRUCTURE
       1 MOL1            1 RESIDUE      1      MOL     
@<SCITEGIC>MOL_PROPERTY
VConf Rank
SciTegic.value.IntegerValue
486

@<SCITEGIC>MOL_PROPERTY
Conf_Id
SciTegic.value.IntegerValue
28

@<SCITEGIC>MOL_PROPERTY
Delta U+W
SciTegic.value.DoubleValue
0.351

@<SCITEGIC>MOL_PROPERTY
U+W
SciTegic.value.DoubleValue
-52.808

@<SCITEGIC>MOL_PROPERTY
Grad RMS
SciTegic.value.DoubleValue
0.000000

@<SCITEGIC>MOL_PROPERTY
U
SciTegic.value.DoubleValue
7.689

@<SCITEGIC>MOL_PROPERTY
W
SciTegic.value.DoubleValue
-60.498

@<SCITEGIC>MOL_PROPERTY
W(PB)
SciTegic.value.DoubleValue
-62.768

@<SCITEGIC>MOL_PROPERTY
W(SA)
SciTegic.value.DoubleValue
2.270

@<SCITEGIC>MOL_PROPERTY
Valence
SciTegic.value.DoubleValue
8.197

@<SCITEGIC>MOL_PROPERTY
Coulomb
SciTegic.value.DoubleValue
-1.561

@<SCITEGIC>MOL_PROPERTY
VdW
SciTegic.value.DoubleValue
1.053

@<SCITEGIC>MOL_PROPERTY
VdW6
SciTegic.value.DoubleValue
-7.737

@<SCITEGIC>MOL_PROPERTY
VdW12
SciTegic.value.DoubleValue
8.791

@<SCITEGIC>MOL_PROPERTY
Bond
SciTegic.value.DoubleValue
0.181

@<SCITEGIC>MOL_PROPERTY
Angle
SciTegic.value.DoubleValue
2.780

@<SCITEGIC>MOL_PROPERTY
Pdih
SciTegic.value.DoubleValue
5.235

@<SCITEGIC>MOL_PROPERTY
Idih
SciTegic.value.DoubleValue
0.001

@<SCITEGIC>MOL_PROPERTY
Tether
SciTegic.value.DoubleValue
0.000

@<TRIPOS>MOLECULE
guest-s21_confgen4.mol2 : confsearch ligand conformer 487
          22          21           1
SMALL
USER_CHARGES
 
@<TRIPOS>ATOM
       1    C1      22.661104   17.036643   20.544060 C.2        1 MOL1         0.6145
       2    O1      23.797121   17.404500   20.769043 O.co2      1 MOL1        -0.6735
       3    O2      22.331773   15.868693   20.481694 O.co2      1 MOL1        -0.6735
       4    C2      21.585557   18.099399   20.348950 C.3        1 MOL1        -0.1985
       5    H1      20.843438   17.707631   19.642956 H          1 MOL1         0.0740
       6    H2      22.051741   18.973147   19.877937 H          1 MOL1         0.0740
       7    C3      20.897322   18.509192   21.674351 C.3        1 MOL1        -0.1882
       8    H3      20.456553   17.615790   22.135896 H          1 MOL1         0.0742
       9    H4      21.654458   18.890765   22.373244 H          1 MOL1         0.0742
      10    C4      19.808812   19.583619   21.446724 C.3        1 MOL1        -0.1880
      11    H5      19.024454   19.183472   20.789720 H          1 MOL1         0.0742
      12    H6      20.254237   20.435958   20.915614 H          1 MOL1         0.0742
      13    C5      19.171352   20.102458   22.757454 C.3        1 MOL1        -0.1880
      14    H7      19.954896   20.506402   23.413060 H          1 MOL1         0.0742
      15    H8      18.507653   20.942992   22.512640 H          1 MOL1         0.0742
      16    C6      18.360176   19.027852   23.516075 C.3        1 MOL1        -0.1856
      17    H9      19.020989   18.212911   23.839425 H          1 MOL1         0.0742
      18    H10     17.610918   18.586324   22.844604 H          1 MOL1         0.0742
      19    C7      17.653958   19.620581   24.752052 C.3        1 MOL1        -0.2871
      20    H11     16.954068   20.415121   24.461851 H          1 MOL1         0.0754
      21    H12     18.383051   20.045341   25.454469 H          1 MOL1         0.0754
      22    H13     17.085266   18.845097   25.281470 H          1 MOL1         0.0754
@<TRIPOS>BOND
    1     1     2    1
    2     1     3    2
    3     1     4    1
    4     4     5    1
    5     4     6    1
    6     4     7    1
    7     7     8    1
    8     7     9    1
    9     7    10    1
   10    10    11    1
   11    10    12    1
   12    10    13    1
   13    13    14    1
   14    13    15    1
   15    13    16    1
   16    16    17    1
   17    16    18    1
   18    16    19    1
   19    19    20    1
   20    19    21    1
   21    19    22    1
@<TRIPOS>SUBSTRUCTURE
       1 MOL1            1 RESIDUE      1      MOL     
@<SCITEGIC>MOL_PROPERTY
VConf Rank
SciTegic.value.IntegerValue
487

@<SCITEGIC>MOL_PROPERTY
Conf_Id
SciTegic.value.IntegerValue
50

@<SCITEGIC>MOL_PROPERTY
Delta U+W
SciTegic.value.DoubleValue
-0.486

@<SCITEGIC>MOL_PROPERTY
U+W
SciTegic.value.DoubleValue
-53.646

@<SCITEGIC>MOL_PROPERTY
Grad RMS
SciTegic.value.DoubleValue
0.000000

@<SCITEGIC>MOL_PROPERTY
U
SciTegic.value.DoubleValue
7.026

@<SCITEGIC>MOL_PROPERTY
W
SciTegic.value.DoubleValue
-60.672

@<SCITEGIC>MOL_PROPERTY
W(PB)
SciTegic.value.DoubleValue
-62.964

@<SCITEGIC>MOL_PROPERTY
W(SA)
SciTegic.value.DoubleValue
2.292

@<SCITEGIC>MOL_PROPERTY
Valence
SciTegic.value.DoubleValue
7.637

@<SCITEGIC>MOL_PROPERTY
Coulomb
SciTegic.value.DoubleValue
-1.488

@<SCITEGIC>MOL_PROPERTY
VdW
SciTegic.value.DoubleValue
0.877

@<SCITEGIC>MOL_PROPERTY
VdW6
SciTegic.value.DoubleValue
-7.165

@<SCITEGIC>MOL_PROPERTY
VdW12
SciTegic.value.DoubleValue
8.043

@<SCITEGIC>MOL_PROPERTY
Bond
SciTegic.value.DoubleValue
0.134

@<SCITEGIC>MOL_PROPERTY
Angle
SciTegic.value.DoubleValue
2.513

@<SCITEGIC>MOL_PROPERTY
Pdih
SciTegic.value.DoubleValue
4.990

@<SCITEGIC>MOL_PROPERTY
Idih
SciTegic.value.DoubleValue
0.001

@<SCITEGIC>MOL_PROPERTY
Tether
SciTegic.value.DoubleValue
0.000

@<TRIPOS>MOLECULE
guest-s21_confgen4.mol2 : confsearch ligand conformer 488
          22          21           1
SMALL
USER_CHARGES
 
@<TRIPOS>ATOM
       1    C1      19.591841   17.905230   18.696451 C.2        1 MOL1         0.6145
       2    O1      18.560518   18.128435   18.093935 O.co2      1 MOL1        -0.6735
       3    O2      20.207681   16.861103   18.612816 O.co2      1 MOL1        -0.6735
       4    C2      20.132118   18.987456   19.624468 C.3        1 MOL1        -0.1985
       5    H1      19.869953   19.963329   19.198375 H          1 MOL1         0.0740
       6    H2      21.226589   18.918373   19.627714 H          1 MOL1         0.0740
       7    C3      19.585418   18.869554   21.068599 C.3        1 MOL1        -0.1882
       8    H3      18.488596   18.931463   21.047313 H          1 MOL1         0.0742
       9    H4      19.842759   17.878650   21.465275 H          1 MOL1         0.0742
      10    C4      20.152642   19.975620   21.988350 C.3        1 MOL1        -0.1880
      11    H5      19.951085   20.955483   21.534251 H          1 MOL1         0.0742
      12    H6      21.245381   19.881154   22.051494 H          1 MOL1         0.0742
      13    C5      19.548712   19.962560   23.412660 C.3        1 MOL1        -0.1880
      14    H7      19.909903   20.848969   23.951869 H          1 MOL1         0.0742
      15    H8      18.456312   20.060994   23.350165 H          1 MOL1         0.0742
      16    C6      19.912308   18.699137   24.224971 C.3        1 MOL1        -0.1856
      17    H9      21.003428   18.571313   24.242981 H          1 MOL1         0.0742
      18    H10     19.492626   17.805980   23.743830 H          1 MOL1         0.0742
      19    C7      19.382986   18.784925   25.670715 C.3        1 MOL1        -0.2871
      20    H11     18.289799   18.885813   25.682985 H          1 MOL1         0.0754
      21    H12     19.813019   19.647459   26.196514 H          1 MOL1         0.0754
      22    H13     19.646193   17.879755   26.233262 H          1 MOL1         0.0754
@<TRIPOS>BOND
    1     1     2    1
    2     1     3    2
    3     1     4    1
    4     4     5    1
    5     4     6    1
    6     4     7    1
    7     7     8    1
    8     7     9    1
    9     7    10    1
   10    10    11    1
   11    10    12    1
   12    10    13    1
   13    13    14    1
   14    13    15    1
   15    13    16    1
   16    16    17    1
   17    16    18    1
   18    16    19    1
   19    19    20    1
   20    19    21    1
   21    19    22    1
@<TRIPOS>SUBSTRUCTURE
       1 MOL1            1 RESIDUE      1      MOL     
@<SCITEGIC>MOL_PROPERTY
VConf Rank
SciTegic.value.IntegerValue
488

@<SCITEGIC>MOL_PROPERTY
Conf_Id
SciTegic.value.IntegerValue
51

@<SCITEGIC>MOL_PROPERTY
Delta U+W
SciTegic.value.DoubleValue
-0.517

@<SCITEGIC>MOL_PROPERTY
U+W
SciTegic.value.DoubleValue
-53.677

@<SCITEGIC>MOL_PROPERTY
Grad RMS
SciTegic.value.DoubleValue
0.000000

@<SCITEGIC>MOL_PROPERTY
U
SciTegic.value.DoubleValue
7.026

@<SCITEGIC>MOL_PROPERTY
W
SciTegic.value.DoubleValue
-60.703

@<SCITEGIC>MOL_PROPERTY
W(PB)
SciTegic.value.DoubleValue
-63.007

@<SCITEGIC>MOL_PROPERTY
W(SA)
SciTegic.value.DoubleValue
2.304

@<SCITEGIC>MOL_PROPERTY
Valence
SciTegic.value.DoubleValue
7.638

@<SCITEGIC>MOL_PROPERTY
Coulomb
SciTegic.value.DoubleValue
-1.488

@<SCITEGIC>MOL_PROPERTY
VdW
SciTegic.value.DoubleValue
0.877

@<SCITEGIC>MOL_PROPERTY
VdW6
SciTegic.value.DoubleValue
-7.165

@<SCITEGIC>MOL_PROPERTY
VdW12
SciTegic.value.DoubleValue
8.042

@<SCITEGIC>MOL_PROPERTY
Bond
SciTegic.value.DoubleValue
0.134

@<SCITEGIC>MOL_PROPERTY
Angle
SciTegic.value.DoubleValue
2.513

@<SCITEGIC>MOL_PROPERTY
Pdih
SciTegic.value.DoubleValue
4.990

@<SCITEGIC>MOL_PROPERTY
Idih
SciTegic.value.DoubleValue
0.001

@<SCITEGIC>MOL_PROPERTY
Tether
SciTegic.value.DoubleValue
0.000

@<TRIPOS>MOLECULE
guest-s21_confgen4.mol2 : confsearch ligand conformer 489
          22          21           1
SMALL
USER_CHARGES
 
@<TRIPOS>ATOM
       1    C1      20.587196   21.746833   24.194814 C.2        1 MOL1         0.6145
       2    O1      19.716463   22.585833   24.073146 O.co2      1 MOL1        -0.6735
       3    O2      20.874177   21.224360   25.253802 O.co2      1 MOL1        -0.6735
       4    C2      21.374830   21.342612   22.951684 C.3        1 MOL1        -0.1985
       5    H1      22.310824   20.867294   23.269323 H          1 MOL1         0.0740
       6    H2      21.649705   22.263421   22.423861 H          1 MOL1         0.0740
       7    C3      20.598285   20.406324   21.989741 C.3        1 MOL1        -0.1882
       8    H3      19.650995   20.883860   21.702942 H          1 MOL1         0.0742
       9    H4      21.180988   20.280599   21.067139 H          1 MOL1         0.0742
      10    C4      20.318429   19.018409   22.608577 C.3        1 MOL1        -0.1880
      11    H5      19.720884   19.134719   23.523355 H          1 MOL1         0.0742
      12    H6      21.267292   18.550961   22.905505 H          1 MOL1         0.0742
      13    C5      19.572883   18.092871   21.623187 C.3        1 MOL1        -0.1880
      14    H7      18.624141   18.560987   21.326766 H          1 MOL1         0.0742
      15    H8      20.169777   17.972671   20.708678 H          1 MOL1         0.0742
      16    C6      19.292360   16.706889   22.240769 C.3        1 MOL1        -0.1856
      17    H9      18.693842   16.823051   23.154981 H          1 MOL1         0.0742
      18    H10     20.239359   16.234782   22.537030 H          1 MOL1         0.0742
      19    C7      18.547211   15.785656   21.254139 C.3        1 MOL1        -0.2871
      20    H11     17.580883   16.219390   20.965198 H          1 MOL1         0.0754
      21    H12     18.356066   14.805202   21.709396 H          1 MOL1         0.0754
      22    H13     19.138040   15.626703   20.342519 H          1 MOL1         0.0754
@<TRIPOS>BOND
    1     1     2    1
    2     1     3    2
    3     1     4    1
    4     4     5    1
    5     4     6    1
    6     4     7    1
    7     7     8    1
    8     7     9    1
    9     7    10    1
   10    10    11    1
   11    10    12    1
   12    10    13    1
   13    13    14    1
   14    13    15    1
   15    13    16    1
   16    16    17    1
   17    16    18    1
   18    16    19    1
   19    19    20    1
   20    19    21    1
   21    19    22    1
@<TRIPOS>SUBSTRUCTURE
       1 MOL1            1 RESIDUE      1      MOL     
@<SCITEGIC>MOL_PROPERTY
VConf Rank
SciTegic.value.IntegerValue
489

@<SCITEGIC>MOL_PROPERTY
Conf_Id
SciTegic.value.IntegerValue
43

@<SCITEGIC>MOL_PROPERTY
Delta U+W
SciTegic.value.DoubleValue
-0.129

@<SCITEGIC>MOL_PROPERTY
U+W
SciTegic.value.DoubleValue
-53.289

@<SCITEGIC>MOL_PROPERTY
Grad RMS
SciTegic.value.DoubleValue
0.000000

@<SCITEGIC>MOL_PROPERTY
U
SciTegic.value.DoubleValue
7.937

@<SCITEGIC>MOL_PROPERTY
W
SciTegic.value.DoubleValue
-61.225

@<SCITEGIC>MOL_PROPERTY
W(PB)
SciTegic.value.DoubleValue
-63.523

@<SCITEGIC>MOL_PROPERTY
W(SA)
SciTegic.value.DoubleValue
2.297

@<SCITEGIC>MOL_PROPERTY
Valence
SciTegic.value.DoubleValue
7.358

@<SCITEGIC>MOL_PROPERTY
Coulomb
SciTegic.value.DoubleValue
-0.022

@<SCITEGIC>MOL_PROPERTY
VdW
SciTegic.value.DoubleValue
0.601

@<SCITEGIC>MOL_PROPERTY
VdW6
SciTegic.value.DoubleValue
-7.363

@<SCITEGIC>MOL_PROPERTY
VdW12
SciTegic.value.DoubleValue
7.964

@<SCITEGIC>MOL_PROPERTY
Bond
SciTegic.value.DoubleValue
0.121

@<SCITEGIC>MOL_PROPERTY
Angle
SciTegic.value.DoubleValue
2.425

@<SCITEGIC>MOL_PROPERTY
Pdih
SciTegic.value.DoubleValue
4.811

@<SCITEGIC>MOL_PROPERTY
Idih
SciTegic.value.DoubleValue
0.000

@<SCITEGIC>MOL_PROPERTY
Tether
SciTegic.value.DoubleValue
0.000

@<TRIPOS>MOLECULE
guest-s21_confgen4.mol2 : confsearch ligand conformer 490
          22          21           1
SMALL
USER_CHARGES
 
@<TRIPOS>ATOM
       1    C1      22.156002   19.552519   19.945816 C.2        1 MOL1         0.6145
       2    O1      22.656113   18.513882   19.561074 O.co2      1 MOL1        -0.6735
       3    O2      22.780707   20.433804   20.502478 O.co2      1 MOL1        -0.6735
       4    C2      20.665378   19.767455   19.698893 C.3        1 MOL1        -0.1985
       5    H1      20.459639   19.477450   18.661777 H          1 MOL1         0.0740
       6    H2      20.448363   20.839646   19.777719 H          1 MOL1         0.0740
       7    C3      19.745405   18.963228   20.653812 C.3        1 MOL1        -0.1882
       8    H3      18.704698   19.068364   20.318526 H          1 MOL1         0.0742
       9    H4      19.993699   17.894968   20.584364 H          1 MOL1         0.0742
      10    C4      19.857459   19.432238   22.121825 C.3        1 MOL1        -0.1880
      11    H5      19.621144   20.503368   22.183880 H          1 MOL1         0.0742
      12    H6      20.892883   19.313989   22.470138 H          1 MOL1         0.0742
      13    C5      18.910804   18.639976   23.048984 C.3        1 MOL1        -0.1880
      14    H7      17.874382   18.758973   22.704415 H          1 MOL1         0.0742
      15    H8      19.147777   17.568978   22.986405 H          1 MOL1         0.0742
      16    C6      19.022713   19.107277   24.515325 C.3        1 MOL1        -0.1856
      17    H9      18.784711   20.177958   24.582120 H          1 MOL1         0.0742
      18    H10     20.057916   18.987999   24.864079 H          1 MOL1         0.0742
      19    C7      18.076447   18.313492   25.438278 C.3        1 MOL1        -0.2871
      20    H11     17.030119   18.440511   25.130932 H          1 MOL1         0.0754
      21    H12     18.169064   18.658546   26.476278 H          1 MOL1         0.0754
      22    H13     18.312963   17.241615   25.415024 H          1 MOL1         0.0754
@<TRIPOS>BOND
    1     1     2    1
    2     1     3    2
    3     1     4    1
    4     4     5    1
    5     4     6    1
    6     4     7    1
    7     7     8    1
    8     7     9    1
    9     7    10    1
   10    10    11    1
   11    10    12    1
   12    10    13    1
   13    13    14    1
   14    13    15    1
   15    13    16    1
   16    16    17    1
   17    16    18    1
   18    16    19    1
   19    19    20    1
   20    19    21    1
   21    19    22    1
@<TRIPOS>SUBSTRUCTURE
       1 MOL1            1 RESIDUE      1      MOL     
@<SCITEGIC>MOL_PROPERTY
VConf Rank
SciTegic.value.IntegerValue
490

@<SCITEGIC>MOL_PROPERTY
Conf_Id
SciTegic.value.IntegerValue
44

@<SCITEGIC>MOL_PROPERTY
Delta U+W
SciTegic.value.DoubleValue
-0.155

@<SCITEGIC>MOL_PROPERTY
U+W
SciTegic.value.DoubleValue
-53.314

@<SCITEGIC>MOL_PROPERTY
Grad RMS
SciTegic.value.DoubleValue
0.000000

@<SCITEGIC>MOL_PROPERTY
U
SciTegic.value.DoubleValue
7.937

@<SCITEGIC>MOL_PROPERTY
W
SciTegic.value.DoubleValue
-61.252

@<SCITEGIC>MOL_PROPERTY
W(PB)
SciTegic.value.DoubleValue
-63.556

@<SCITEGIC>MOL_PROPERTY
W(SA)
SciTegic.value.DoubleValue
2.304

@<SCITEGIC>MOL_PROPERTY
Valence
SciTegic.value.DoubleValue
7.358

@<SCITEGIC>MOL_PROPERTY
Coulomb
SciTegic.value.DoubleValue
-0.021

@<SCITEGIC>MOL_PROPERTY
VdW
SciTegic.value.DoubleValue
0.600

@<SCITEGIC>MOL_PROPERTY
VdW6
SciTegic.value.DoubleValue
-7.363

@<SCITEGIC>MOL_PROPERTY
VdW12
SciTegic.value.DoubleValue
7.964

@<SCITEGIC>MOL_PROPERTY
Bond
SciTegic.value.DoubleValue
0.121

@<SCITEGIC>MOL_PROPERTY
Angle
SciTegic.value.DoubleValue
2.425

@<SCITEGIC>MOL_PROPERTY
Pdih
SciTegic.value.DoubleValue
4.811

@<SCITEGIC>MOL_PROPERTY
Idih
SciTegic.value.DoubleValue
0.001

@<SCITEGIC>MOL_PROPERTY
Tether
SciTegic.value.DoubleValue
0.000

@<TRIPOS>MOLECULE
guest-s21_confgen4.mol2 : confsearch ligand conformer 491
          22          21           1
SMALL
USER_CHARGES
 
@<TRIPOS>ATOM
       1    C1      22.023615   16.567724   23.437821 C.2        1 MOL1         0.6145
       2    O1      22.934368   17.064107   24.071111 O.co2      1 MOL1        -0.6735
       3    O2      22.189058   15.779084   22.528128 O.co2      1 MOL1        -0.6735
       4    C2      20.594211   16.941890   23.820073 C.3        1 MOL1        -0.1985
       5    H1      20.521640   16.882223   24.912412 H          1 MOL1         0.0740
       6    H2      19.913005   16.183816   23.414892 H          1 MOL1         0.0740
       7    C3      20.162872   18.355429   23.349456 C.3        1 MOL1        -0.1882
       8    H3      19.190427   18.589958   23.800579 H          1 MOL1         0.0742
       9    H4      20.877038   19.099036   23.729480 H          1 MOL1         0.0742
      10    C4      20.062722   18.463481   21.808838 C.3        1 MOL1        -0.1880
      11    H5      19.317367   17.748439   21.434723 H          1 MOL1         0.0742
      12    H6      21.023246   18.169712   21.363771 H          1 MOL1         0.0742
      13    C5      19.711847   19.886063   21.311875 C.3        1 MOL1        -0.1880
      14    H7      20.457351   20.600810   21.686411 H          1 MOL1         0.0742
      15    H8      19.791171   19.900570   20.216247 H          1 MOL1         0.0742
      16    C6      18.294620   20.350224   21.717396 C.3        1 MOL1        -0.1856
      17    H9      18.217373   20.420850   22.810218 H          1 MOL1         0.0742
      18    H10     17.553688   19.607753   21.390362 H          1 MOL1         0.0742
      19    C7      17.951266   21.721572   21.101562 C.3        1 MOL1        -0.2871
      20    H11     18.661577   22.489898   21.434004 H          1 MOL1         0.0754
      21    H12     16.943957   22.038778   21.401183 H          1 MOL1         0.0754
      22    H13     17.980638   21.678737   20.004904 H          1 MOL1         0.0754
@<TRIPOS>BOND
    1     1     2    1
    2     1     3    2
    3     1     4    1
    4     4     5    1
    5     4     6    1
    6     4     7    1
    7     7     8    1
    8     7     9    1
    9     7    10    1
   10    10    11    1
   11    10    12    1
   12    10    13    1
   13    13    14    1
   14    13    15    1
   15    13    16    1
   16    16    17    1
   17    16    18    1
   18    16    19    1
   19    19    20    1
   20    19    21    1
   21    19    22    1
@<TRIPOS>SUBSTRUCTURE
       1 MOL1            1 RESIDUE      1      MOL     
@<SCITEGIC>MOL_PROPERTY
VConf Rank
SciTegic.value.IntegerValue
491

@<SCITEGIC>MOL_PROPERTY
Conf_Id
SciTegic.value.IntegerValue
53

@<SCITEGIC>MOL_PROPERTY
Delta U+W
SciTegic.value.DoubleValue
0.723

@<SCITEGIC>MOL_PROPERTY
U+W
SciTegic.value.DoubleValue
-52.436

@<SCITEGIC>MOL_PROPERTY
Grad RMS
SciTegic.value.DoubleValue
0.000000

@<SCITEGIC>MOL_PROPERTY
U
SciTegic.value.DoubleValue
8.587

@<SCITEGIC>MOL_PROPERTY
W
SciTegic.value.DoubleValue
-61.022

@<SCITEGIC>MOL_PROPERTY
W(PB)
SciTegic.value.DoubleValue
-63.285

@<SCITEGIC>MOL_PROPERTY
W(SA)
SciTegic.value.DoubleValue
2.263

@<SCITEGIC>MOL_PROPERTY
Valence
SciTegic.value.DoubleValue
7.933

@<SCITEGIC>MOL_PROPERTY
Coulomb
SciTegic.value.DoubleValue
-0.124

@<SCITEGIC>MOL_PROPERTY
VdW
SciTegic.value.DoubleValue
0.778

@<SCITEGIC>MOL_PROPERTY
VdW6
SciTegic.value.DoubleValue
-7.981

@<SCITEGIC>MOL_PROPERTY
VdW12
SciTegic.value.DoubleValue
8.759

@<SCITEGIC>MOL_PROPERTY
Bond
SciTegic.value.DoubleValue
0.160

@<SCITEGIC>MOL_PROPERTY
Angle
SciTegic.value.DoubleValue
2.698

@<SCITEGIC>MOL_PROPERTY
Pdih
SciTegic.value.DoubleValue
5.074

@<SCITEGIC>MOL_PROPERTY
Idih
SciTegic.value.DoubleValue
0.001

@<SCITEGIC>MOL_PROPERTY
Tether
SciTegic.value.DoubleValue
0.000

@<TRIPOS>MOLECULE
guest-s21_confgen4.mol2 : confsearch ligand conformer 492
          22          21           1
SMALL
USER_CHARGES
 
@<TRIPOS>ATOM
       1    C1      19.166384   22.084442   21.235164 C.2        1 MOL1         0.6145
       2    O1      20.045962   22.822814   21.632301 O.co2      1 MOL1        -0.6735
       3    O2      18.275684   22.439959   20.488944 O.co2      1 MOL1        -0.6735
       4    C2      19.194170   20.626454   21.679573 C.3        1 MOL1        -0.1985
       5    H1      18.160163   20.264773   21.727513 H          1 MOL1         0.0740
       6    H2      19.602090   20.597864   22.696191 H          1 MOL1         0.0740
       7    C3      20.033665   19.727580   20.737019 C.3        1 MOL1        -0.1882
       8    H3      19.689756   19.882027   19.704888 H          1 MOL1         0.0742
       9    H4      21.081931   20.055713   20.763893 H          1 MOL1         0.0742
      10    C4      19.954767   18.214220   21.059792 C.3        1 MOL1        -0.1880
      11    H5      20.545973   17.683283   20.301156 H          1 MOL1         0.0742
      12    H6      18.923384   17.855715   20.938641 H          1 MOL1         0.0742
      13    C5      20.499446   17.822672   22.456833 C.3        1 MOL1        -0.1880
      14    H7      21.005841   16.851303   22.373167 H          1 MOL1         0.0742
      15    H8      21.266830   18.540454   22.777572 H          1 MOL1         0.0742
      16    C6      19.395527   17.697650   23.532233 C.3        1 MOL1        -0.1856
      17    H9      18.666926   16.935240   23.223904 H          1 MOL1         0.0742
      18    H10     18.842082   18.639281   23.629171 H          1 MOL1         0.0742
      19    C7      19.984119   17.313019   24.904439 C.3        1 MOL1        -0.2871
      20    H11     20.511573   16.351656   24.850528 H          1 MOL1         0.0754
      21    H12     19.188161   17.221323   25.654822 H          1 MOL1         0.0754
      22    H13     20.693555   18.074425   25.254184 H          1 MOL1         0.0754
@<TRIPOS>BOND
    1     1     2    1
    2     1     3    2
    3     1     4    1
    4     4     5    1
    5     4     6    1
    6     4     7    1
    7     7     8    1
    8     7     9    1
    9     7    10    1
   10    10    11    1
   11    10    12    1
   12    10    13    1
   13    13    14    1
   14    13    15    1
   15    13    16    1
   16    16    17    1
   17    16    18    1
   18    16    19    1
   19    19    20    1
   20    19    21    1
   21    19    22    1
@<TRIPOS>SUBSTRUCTURE
       1 MOL1            1 RESIDUE      1      MOL     
@<SCITEGIC>MOL_PROPERTY
VConf Rank
SciTegic.value.IntegerValue
492

@<SCITEGIC>MOL_PROPERTY
Conf_Id
SciTegic.value.IntegerValue
5

@<SCITEGIC>MOL_PROPERTY
Delta U+W
SciTegic.value.DoubleValue
2.167

@<SCITEGIC>MOL_PROPERTY
U+W
SciTegic.value.DoubleValue
-50.993

@<SCITEGIC>MOL_PROPERTY
Grad RMS
SciTegic.value.DoubleValue
0.000000

@<SCITEGIC>MOL_PROPERTY
U
SciTegic.value.DoubleValue
10.045

@<SCITEGIC>MOL_PROPERTY
W
SciTegic.value.DoubleValue
-61.037

@<SCITEGIC>MOL_PROPERTY
W(PB)
SciTegic.value.DoubleValue
-63.303

@<SCITEGIC>MOL_PROPERTY
W(SA)
SciTegic.value.DoubleValue
2.266

@<SCITEGIC>MOL_PROPERTY
Valence
SciTegic.value.DoubleValue
10.100

@<SCITEGIC>MOL_PROPERTY
Coulomb
SciTegic.value.DoubleValue
-0.883

@<SCITEGIC>MOL_PROPERTY
VdW
SciTegic.value.DoubleValue
0.828

@<SCITEGIC>MOL_PROPERTY
VdW6
SciTegic.value.DoubleValue
-8.177

@<SCITEGIC>MOL_PROPERTY
VdW12
SciTegic.value.DoubleValue
9.005

@<SCITEGIC>MOL_PROPERTY
Bond
SciTegic.value.DoubleValue
0.182

@<SCITEGIC>MOL_PROPERTY
Angle
SciTegic.value.DoubleValue
2.988

@<SCITEGIC>MOL_PROPERTY
Pdih
SciTegic.value.DoubleValue
6.930

@<SCITEGIC>MOL_PROPERTY
Idih
SciTegic.value.DoubleValue
0.001

@<SCITEGIC>MOL_PROPERTY
Tether
SciTegic.value.DoubleValue
0.000

@<TRIPOS>MOLECULE
guest-s21_confgen4.mol2 : confsearch ligand conformer 493
          22          21           1
SMALL
USER_CHARGES
 
@<TRIPOS>ATOM
       1    C1      20.024811   17.922777   19.155887 C.2        1 MOL1         0.6145
       2    O1      19.136286   18.468263   18.531757 O.co2      1 MOL1        -0.6735
       3    O2      20.776081   17.097735   18.674760 O.co2      1 MOL1        -0.6735
       4    C2      20.191915   18.275816   20.629468 C.3        1 MOL1        -0.1985
       5    H1      19.920362   19.330532   20.750145 H          1 MOL1         0.0740
       6    H2      21.253306   18.175853   20.885862 H          1 MOL1         0.0740
       7    C3      19.329121   17.387631   21.561055 C.3        1 MOL1        -0.1882
       8    H3      18.266291   17.561392   21.343214 H          1 MOL1         0.0742
       9    H4      19.523518   16.333103   21.321047 H          1 MOL1         0.0742
      10    C4      19.591506   17.603779   23.072712 C.3        1 MOL1        -0.1880
      11    H5      20.628616   17.336739   23.317752 H          1 MOL1         0.0742
      12    H6      18.962184   16.890672   23.622602 H          1 MOL1         0.0742
      13    C5      19.267552   19.029365   23.586978 C.3        1 MOL1        -0.1880
      14    H7      18.482206   19.484528   22.968092 H          1 MOL1         0.0742
      15    H8      18.849223   18.947314   24.599530 H          1 MOL1         0.0742
      16    C6      20.505451   19.953540   23.652291 C.3        1 MOL1        -0.1856
      17    H9      20.974756   20.041196   22.665157 H          1 MOL1         0.0742
      18    H10     21.258302   19.512589   24.320104 H          1 MOL1         0.0742
      19    C7      20.134337   21.360265   24.162910 C.3        1 MOL1        -0.2871
      20    H11     19.405846   21.839920   23.496135 H          1 MOL1         0.0754
      21    H12     21.023908   22.001700   24.210419 H          1 MOL1         0.0754
      22    H13     19.697893   21.310866   25.169096 H          1 MOL1         0.0754
@<TRIPOS>BOND
    1     1     2    1
    2     1     3    2
    3     1     4    1
    4     4     5    1
    5     4     6    1
    6     4     7    1
    7     7     8    1
    8     7     9    1
    9     7    10    1
   10    10    11    1
   11    10    12    1
   12    10    13    1
   13    13    14    1
   14    13    15    1
   15    13    16    1
   16    16    17    1
   17    16    18    1
   18    16    19    1
   19    19    20    1
   20    19    21    1
   21    19    22    1
@<TRIPOS>SUBSTRUCTURE
       1 MOL1            1 RESIDUE      1      MOL     
@<SCITEGIC>MOL_PROPERTY
VConf Rank
SciTegic.value.IntegerValue
493

@<SCITEGIC>MOL_PROPERTY
Conf_Id
SciTegic.value.IntegerValue
6

@<SCITEGIC>MOL_PROPERTY
Delta U+W
SciTegic.value.DoubleValue
2.118

@<SCITEGIC>MOL_PROPERTY
U+W
SciTegic.value.DoubleValue
-51.042

@<SCITEGIC>MOL_PROPERTY
Grad RMS
SciTegic.value.DoubleValue
0.000000

@<SCITEGIC>MOL_PROPERTY
U
SciTegic.value.DoubleValue
10.045

@<SCITEGIC>MOL_PROPERTY
W
SciTegic.value.DoubleValue
-61.086

@<SCITEGIC>MOL_PROPERTY
W(PB)
SciTegic.value.DoubleValue
-63.356

@<SCITEGIC>MOL_PROPERTY
W(SA)
SciTegic.value.DoubleValue
2.270

@<SCITEGIC>MOL_PROPERTY
Valence
SciTegic.value.DoubleValue
10.100

@<SCITEGIC>MOL_PROPERTY
Coulomb
SciTegic.value.DoubleValue
-0.883

@<SCITEGIC>MOL_PROPERTY
VdW
SciTegic.value.DoubleValue
0.828

@<SCITEGIC>MOL_PROPERTY
VdW6
SciTegic.value.DoubleValue
-8.177

@<SCITEGIC>MOL_PROPERTY
VdW12
SciTegic.value.DoubleValue
9.004

@<SCITEGIC>MOL_PROPERTY
Bond
SciTegic.value.DoubleValue
0.182

@<SCITEGIC>MOL_PROPERTY
Angle
SciTegic.value.DoubleValue
2.988

@<SCITEGIC>MOL_PROPERTY
Pdih
SciTegic.value.DoubleValue
6.930

@<SCITEGIC>MOL_PROPERTY
Idih
SciTegic.value.DoubleValue
0.001

@<SCITEGIC>MOL_PROPERTY
Tether
SciTegic.value.DoubleValue
0.000

@<TRIPOS>MOLECULE
guest-s21_confgen4.mol2 : confsearch ligand conformer 494
          22          21           1
SMALL
USER_CHARGES
 
@<TRIPOS>ATOM
       1    C1      21.219538   17.680205   20.826141 C.2        1 MOL1         0.6145
       2    O1      21.195080   16.504212   21.132634 O.co2      1 MOL1        -0.6735
       3    O2      22.195378   18.390174   20.970141 O.co2      1 MOL1        -0.6735
       4    C2      19.983610   18.281775   20.159770 C.3        1 MOL1        -0.1985
       5    H1      19.852137   17.745170   19.213037 H          1 MOL1         0.0740
       6    H2      20.190965   19.327320   19.901539 H          1 MOL1         0.0740
       7    C3      18.669550   18.181276   20.984527 C.3        1 MOL1        -0.1882
       8    H3      17.824989   18.293178   20.291262 H          1 MOL1         0.0742
       9    H4      18.574362   17.175349   21.416526 H          1 MOL1         0.0742
      10    C4      18.514747   19.252110   22.092797 C.3        1 MOL1        -0.1880
      11    H5      17.495705   19.180709   22.497063 H          1 MOL1         0.0742
      12    H6      18.602594   20.254869   21.652813 H          1 MOL1         0.0742
      13    C5      19.521515   19.105298   23.256142 C.3        1 MOL1        -0.1880
      14    H7      19.506555   18.071952   23.628995 H          1 MOL1         0.0742
      15    H8      20.539124   19.302349   22.895995 H          1 MOL1         0.0742
      16    C6      19.203031   20.076887   24.412225 C.3        1 MOL1        -0.1856
      17    H9      18.189012   19.885383   24.789648 H          1 MOL1         0.0742
      18    H10     19.215874   21.110820   24.040430 H          1 MOL1         0.0742
      19    C7      20.214011   19.935202   25.567761 C.3        1 MOL1        -0.2871
      20    H11     20.199501   18.917480   25.979343 H          1 MOL1         0.0754
      21    H12     19.973793   20.633255   26.380190 H          1 MOL1         0.0754
      22    H13     21.234413   20.151557   25.225018 H          1 MOL1         0.0754
@<TRIPOS>BOND
    1     1     2    1
    2     1     3    2
    3     1     4    1
    4     4     5    1
    5     4     6    1
    6     4     7    1
    7     7     8    1
    8     7     9    1
    9     7    10    1
   10    10    11    1
   11    10    12    1
   12    10    13    1
   13    13    14    1
   14    13    15    1
   15    13    16    1
   16    16    17    1
   17    16    18    1
   18    16    19    1
   19    19    20    1
   20    19    21    1
   21    19    22    1
@<TRIPOS>SUBSTRUCTURE
       1 MOL1            1 RESIDUE      1      MOL     
@<SCITEGIC>MOL_PROPERTY
VConf Rank
SciTegic.value.IntegerValue
494

@<SCITEGIC>MOL_PROPERTY
Conf_Id
SciTegic.value.IntegerValue
8

@<SCITEGIC>MOL_PROPERTY
Delta U+W
SciTegic.value.DoubleValue
1.886

@<SCITEGIC>MOL_PROPERTY
U+W
SciTegic.value.DoubleValue
-51.274

@<SCITEGIC>MOL_PROPERTY
Grad RMS
SciTegic.value.DoubleValue
0.000000

@<SCITEGIC>MOL_PROPERTY
U
SciTegic.value.DoubleValue
11.237

@<SCITEGIC>MOL_PROPERTY
W
SciTegic.value.DoubleValue
-62.510

@<SCITEGIC>MOL_PROPERTY
W(PB)
SciTegic.value.DoubleValue
-64.777

@<SCITEGIC>MOL_PROPERTY
W(SA)
SciTegic.value.DoubleValue
2.267

@<SCITEGIC>MOL_PROPERTY
Valence
SciTegic.value.DoubleValue
9.029

@<SCITEGIC>MOL_PROPERTY
Coulomb
SciTegic.value.DoubleValue
1.667

@<SCITEGIC>MOL_PROPERTY
VdW
SciTegic.value.DoubleValue
0.540

@<SCITEGIC>MOL_PROPERTY
VdW6
SciTegic.value.DoubleValue
-8.825

@<SCITEGIC>MOL_PROPERTY
VdW12
SciTegic.value.DoubleValue
9.365

@<SCITEGIC>MOL_PROPERTY
Bond
SciTegic.value.DoubleValue
0.186

@<SCITEGIC>MOL_PROPERTY
Angle
SciTegic.value.DoubleValue
3.195

@<SCITEGIC>MOL_PROPERTY
Pdih
SciTegic.value.DoubleValue
5.642

@<SCITEGIC>MOL_PROPERTY
Idih
SciTegic.value.DoubleValue
0.007

@<SCITEGIC>MOL_PROPERTY
Tether
SciTegic.value.DoubleValue
0.000

@<TRIPOS>MOLECULE
guest-s21_confgen4.mol2 : confsearch ligand conformer 495
          22          21           1
SMALL
USER_CHARGES
 
@<TRIPOS>ATOM
       1    C1      19.006987   19.818543   25.337768 C.2        1 MOL1         0.6145
       2    O1      19.650183   18.879212   25.762879 O.co2      1 MOL1        -0.6735
       3    O2      17.899663   20.113204   25.743128 O.co2      1 MOL1        -0.6735
       4    C2      19.633962   20.695235   24.257269 C.3        1 MOL1        -0.1985
       5    H1      20.706772   20.477853   24.206955 H          1 MOL1         0.0740
       6    H2      19.545065   21.735789   24.590537 H          1 MOL1         0.0740
       7    C3      18.976210   20.547367   22.857753 C.3        1 MOL1        -0.1882
       8    H3      17.922425   20.849609   22.932012 H          1 MOL1         0.0742
       9    H4      19.449380   21.252120   22.160785 H          1 MOL1         0.0742
      10    C4      19.042220   19.119390   22.261721 C.3        1 MOL1        -0.1880
      11    H5      18.468222   19.116294   21.326568 H          1 MOL1         0.0742
      12    H6      18.539716   18.412379   22.935923 H          1 MOL1         0.0742
      13    C5      20.485868   18.634054   21.982840 C.3        1 MOL1        -0.1880
      14    H7      20.998307   19.348710   21.324688 H          1 MOL1         0.0742
      15    H8      21.049667   18.614353   22.924474 H          1 MOL1         0.0742
      16    C6      20.548845   17.219543   21.360592 C.3        1 MOL1        -0.1856
      17    H9      20.023388   16.505398   22.009645 H          1 MOL1         0.0742
      18    H10     21.598396   16.896001   21.329918 H          1 MOL1         0.0742
      19    C7      19.968057   17.150216   19.931365 C.3        1 MOL1        -0.2871
      20    H11     18.888930   17.347203   19.925998 H          1 MOL1         0.0754
      21    H12     20.124669   16.152176   19.502079 H          1 MOL1         0.0754
      22    H13     20.455569   17.881178   19.273242 H          1 MOL1         0.0754
@<TRIPOS>BOND
    1     1     2    1
    2     1     3    2
    3     1     4    1
    4     4     5    1
    5     4     6    1
    6     4     7    1
    7     7     8    1
    8     7     9    1
    9     7    10    1
   10    10    11    1
   11    10    12    1
   12    10    13    1
   13    13    14    1
   14    13    15    1
   15    13    16    1
   16    16    17    1
   17    16    18    1
   18    16    19    1
   19    19    20    1
   20    19    21    1
   21    19    22    1
@<TRIPOS>SUBSTRUCTURE
       1 MOL1            1 RESIDUE      1      MOL     
@<SCITEGIC>MOL_PROPERTY
VConf Rank
SciTegic.value.IntegerValue
495

@<SCITEGIC>MOL_PROPERTY
Conf_Id
SciTegic.value.IntegerValue
93

@<SCITEGIC>MOL_PROPERTY
Delta U+W
SciTegic.value.DoubleValue
1.836

@<SCITEGIC>MOL_PROPERTY
U+W
SciTegic.value.DoubleValue
-51.323

@<SCITEGIC>MOL_PROPERTY
Grad RMS
SciTegic.value.DoubleValue
0.000000

@<SCITEGIC>MOL_PROPERTY
U
SciTegic.value.DoubleValue
10.427

@<SCITEGIC>MOL_PROPERTY
W
SciTegic.value.DoubleValue
-61.751

@<SCITEGIC>MOL_PROPERTY
W(PB)
SciTegic.value.DoubleValue
-63.980

@<SCITEGIC>MOL_PROPERTY
W(SA)
SciTegic.value.DoubleValue
2.230

@<SCITEGIC>MOL_PROPERTY
Valence
SciTegic.value.DoubleValue
8.446

@<SCITEGIC>MOL_PROPERTY
Coulomb
SciTegic.value.DoubleValue
1.306

@<SCITEGIC>MOL_PROPERTY
VdW
SciTegic.value.DoubleValue
0.676

@<SCITEGIC>MOL_PROPERTY
VdW6
SciTegic.value.DoubleValue
-8.928

@<SCITEGIC>MOL_PROPERTY
VdW12
SciTegic.value.DoubleValue
9.604

@<SCITEGIC>MOL_PROPERTY
Bond
SciTegic.value.DoubleValue
0.209

@<SCITEGIC>MOL_PROPERTY
Angle
SciTegic.value.DoubleValue
3.066

@<SCITEGIC>MOL_PROPERTY
Pdih
SciTegic.value.DoubleValue
5.170

@<SCITEGIC>MOL_PROPERTY
Idih
SciTegic.value.DoubleValue
0.001

@<SCITEGIC>MOL_PROPERTY
Tether
SciTegic.value.DoubleValue
0.000

@<TRIPOS>MOLECULE
guest-s21_confgen4.mol2 : confsearch ligand conformer 496
          22          21           1
SMALL
USER_CHARGES
 
@<TRIPOS>ATOM
       1    C1      18.571168   16.254429   22.240318 C.2        1 MOL1         0.6145
       2    O1      19.158435   15.294756   21.780481 O.co2      1 MOL1        -0.6735
       3    O2      17.547704   16.706416   21.765981 O.co2      1 MOL1        -0.6735
       4    C2      19.135262   16.906986   23.499338 C.3        1 MOL1        -0.1985
       5    H1      19.317414   16.107181   24.226563 H          1 MOL1         0.0740
       6    H2      18.364677   17.551890   23.936380 H          1 MOL1         0.0740
       7    C3      20.451095   17.699979   23.269349 C.3        1 MOL1        -0.1882
       8    H3      20.813299   18.084406   24.232342 H          1 MOL1         0.0742
       9    H4      21.220774   17.004461   22.907167 H          1 MOL1         0.0742
      10    C4      20.330061   18.873042   22.265354 C.3        1 MOL1        -0.1880
      11    H5      20.002206   18.492711   21.288223 H          1 MOL1         0.0742
      12    H6      21.332316   19.293032   22.113402 H          1 MOL1         0.0742
      13    C5      19.367971   19.990922   22.736704 C.3        1 MOL1        -0.1880
      14    H7      18.361009   19.572658   22.863268 H          1 MOL1         0.0742
      15    H8      19.680991   20.360301   23.722641 H          1 MOL1         0.0742
      16    C6      19.270571   21.175180   21.746736 C.3        1 MOL1        -0.1856
      17    H9      18.468122   21.847078   22.081110 H          1 MOL1         0.0742
      18    H10     18.972683   20.806133   20.755552 H          1 MOL1         0.0742
      19    C7      20.578741   21.987395   21.629235 C.3        1 MOL1        -0.2871
      20    H11     21.383715   21.390597   21.182917 H          1 MOL1         0.0754
      21    H12     20.913932   22.337110   22.614347 H          1 MOL1         0.0754
      22    H13     20.427033   22.868147   20.991930 H          1 MOL1         0.0754
@<TRIPOS>BOND
    1     1     2    1
    2     1     3    2
    3     1     4    1
    4     4     5    1
    5     4     6    1
    6     4     7    1
    7     7     8    1
    8     7     9    1
    9     7    10    1
   10    10    11    1
   11    10    12    1
   12    10    13    1
   13    13    14    1
   14    13    15    1
   15    13    16    1
   16    16    17    1
   17    16    18    1
   18    16    19    1
   19    19    20    1
   20    19    21    1
   21    19    22    1
@<TRIPOS>SUBSTRUCTURE
       1 MOL1            1 RESIDUE      1      MOL     
@<SCITEGIC>MOL_PROPERTY
VConf Rank
SciTegic.value.IntegerValue
496

@<SCITEGIC>MOL_PROPERTY
Conf_Id
SciTegic.value.IntegerValue
70

@<SCITEGIC>MOL_PROPERTY
Delta U+W
SciTegic.value.DoubleValue
1.803

@<SCITEGIC>MOL_PROPERTY
U+W
SciTegic.value.DoubleValue
-51.356

@<SCITEGIC>MOL_PROPERTY
Grad RMS
SciTegic.value.DoubleValue
0.000000

@<SCITEGIC>MOL_PROPERTY
U
SciTegic.value.DoubleValue
10.428

@<SCITEGIC>MOL_PROPERTY
W
SciTegic.value.DoubleValue
-61.784

@<SCITEGIC>MOL_PROPERTY
W(PB)
SciTegic.value.DoubleValue
-64.014

@<SCITEGIC>MOL_PROPERTY
W(SA)
SciTegic.value.DoubleValue
2.230

@<SCITEGIC>MOL_PROPERTY
Valence
SciTegic.value.DoubleValue
8.445

@<SCITEGIC>MOL_PROPERTY
Coulomb
SciTegic.value.DoubleValue
1.306

@<SCITEGIC>MOL_PROPERTY
VdW
SciTegic.value.DoubleValue
0.676

@<SCITEGIC>MOL_PROPERTY
VdW6
SciTegic.value.DoubleValue
-8.929

@<SCITEGIC>MOL_PROPERTY
VdW12
SciTegic.value.DoubleValue
9.605

@<SCITEGIC>MOL_PROPERTY
Bond
SciTegic.value.DoubleValue
0.209

@<SCITEGIC>MOL_PROPERTY
Angle
SciTegic.value.DoubleValue
3.066

@<SCITEGIC>MOL_PROPERTY
Pdih
SciTegic.value.DoubleValue
5.170

@<SCITEGIC>MOL_PROPERTY
Idih
SciTegic.value.DoubleValue
0.001

@<SCITEGIC>MOL_PROPERTY
Tether
SciTegic.value.DoubleValue
0.000

@<TRIPOS>MOLECULE
guest-s21_confgen4.mol2 : confsearch ligand conformer 497
          22          21           1
SMALL
USER_CHARGES
 
@<TRIPOS>ATOM
       1    C1      22.999216   19.126098   22.738481 C.2        1 MOL1         0.6145
       2    O1      23.416968   18.841018   21.633435 O.co2      1 MOL1        -0.6735
       3    O2      23.295995   18.516885   23.747272 O.co2      1 MOL1        -0.6735
       4    C2      22.067745   20.328160   22.866957 C.3        1 MOL1        -0.1985
       5    H1      22.496605   21.141301   22.269529 H          1 MOL1         0.0740
       6    H2      22.072489   20.664797   23.910745 H          1 MOL1         0.0740
       7    C3      20.615280   20.051985   22.398924 C.3        1 MOL1        -0.1882
       8    H3      20.053964   20.996009   22.401715 H          1 MOL1         0.0742
       9    H4      20.637886   19.698524   21.359605 H          1 MOL1         0.0742
      10    C4      19.889176   19.023232   23.298370 C.3        1 MOL1        -0.1880
      11    H5      19.955237   19.353954   24.343884 H          1 MOL1         0.0742
      12    H6      20.404239   18.053981   23.247695 H          1 MOL1         0.0742
      13    C5      18.397023   18.833346   22.936498 C.3        1 MOL1        -0.1880
      14    H7      17.934655   18.186997   23.695008 H          1 MOL1         0.0742
      15    H8      17.878066   19.799905   22.994054 H          1 MOL1         0.0742
      16    C6      18.177028   18.205882   21.541485 C.3        1 MOL1        -0.1856
      17    H9      18.739263   17.264916   21.465697 H          1 MOL1         0.0742
      18    H10     18.563746   18.874004   20.760832 H          1 MOL1         0.0742
      19    C7      16.683232   17.933136   21.273312 C.3        1 MOL1        -0.2871
      20    H11     16.271429   17.235967   22.014747 H          1 MOL1         0.0754
      21    H12     16.543415   17.490877   20.278365 H          1 MOL1         0.0754
      22    H13     16.100793   18.862821   21.315997 H          1 MOL1         0.0754
@<TRIPOS>BOND
    1     1     2    1
    2     1     3    2
    3     1     4    1
    4     4     5    1
    5     4     6    1
    6     4     7    1
    7     7     8    1
    8     7     9    1
    9     7    10    1
   10    10    11    1
   11    10    12    1
   12    10    13    1
   13    13    14    1
   14    13    15    1
   15    13    16    1
   16    16    17    1
   17    16    18    1
   18    16    19    1
   19    19    20    1
   20    19    21    1
   21    19    22    1
@<TRIPOS>SUBSTRUCTURE
       1 MOL1            1 RESIDUE      1      MOL     
@<SCITEGIC>MOL_PROPERTY
VConf Rank
SciTegic.value.IntegerValue
497

@<SCITEGIC>MOL_PROPERTY
Conf_Id
SciTegic.value.IntegerValue
85

@<SCITEGIC>MOL_PROPERTY
Delta U+W
SciTegic.value.DoubleValue
0.707

@<SCITEGIC>MOL_PROPERTY
U+W
SciTegic.value.DoubleValue
-52.452

@<SCITEGIC>MOL_PROPERTY
Grad RMS
SciTegic.value.DoubleValue
0.000000

@<SCITEGIC>MOL_PROPERTY
U
SciTegic.value.DoubleValue
8.925

@<SCITEGIC>MOL_PROPERTY
W
SciTegic.value.DoubleValue
-61.378

@<SCITEGIC>MOL_PROPERTY
W(PB)
SciTegic.value.DoubleValue
-63.661

@<SCITEGIC>MOL_PROPERTY
W(SA)
SciTegic.value.DoubleValue
2.283

@<SCITEGIC>MOL_PROPERTY
Valence
SciTegic.value.DoubleValue
7.881

@<SCITEGIC>MOL_PROPERTY
Coulomb
SciTegic.value.DoubleValue
0.349

@<SCITEGIC>MOL_PROPERTY
VdW
SciTegic.value.DoubleValue
0.695

@<SCITEGIC>MOL_PROPERTY
VdW6
SciTegic.value.DoubleValue
-8.049

@<SCITEGIC>MOL_PROPERTY
VdW12
SciTegic.value.DoubleValue
8.743

@<SCITEGIC>MOL_PROPERTY
Bond
SciTegic.value.DoubleValue
0.156

@<SCITEGIC>MOL_PROPERTY
Angle
SciTegic.value.DoubleValue
2.660

@<SCITEGIC>MOL_PROPERTY
Pdih
SciTegic.value.DoubleValue
5.064

@<SCITEGIC>MOL_PROPERTY
Idih
SciTegic.value.DoubleValue
0.001

@<SCITEGIC>MOL_PROPERTY
Tether
SciTegic.value.DoubleValue
0.000

@<TRIPOS>MOLECULE
guest-s21_confgen4.mol2 : confsearch ligand conformer 498
          22          21           1
SMALL
USER_CHARGES
 
@<TRIPOS>ATOM
       1    C1      16.813786   18.162527   23.530495 C.2        1 MOL1         0.6145
       2    O1      15.972483   18.944782   23.133976 O.co2      1 MOL1        -0.6735
       3    O2      16.672330   16.955663   23.509468 O.co2      1 MOL1        -0.6735
       4    C2      18.109719   18.724959   24.108094 C.3        1 MOL1        -0.1985
       5    H1      18.309391   18.190017   25.044021 H          1 MOL1         0.0740
       6    H2      17.948755   19.777233   24.372039 H          1 MOL1         0.0740
       7    C3      19.333735   18.590733   23.164984 C.3        1 MOL1        -0.1882
       8    H3      20.233800   18.874439   23.724715 H          1 MOL1         0.0742
       9    H4      19.454704   17.538911   22.871191 H          1 MOL1         0.0742
      10    C4      19.214305   19.478897   21.904832 C.3        1 MOL1        -0.1880
      11    H5      19.180181   20.535086   22.204834 H          1 MOL1         0.0742
      12    H6      18.257750   19.270964   21.406225 H          1 MOL1         0.0742
      13    C5      20.350234   19.273167   20.871456 C.3        1 MOL1        -0.1880
      14    H7      20.334171   18.241253   20.494863 H          1 MOL1         0.0742
      15    H8      20.126719   19.910108   20.004730 H          1 MOL1         0.0742
      16    C6      21.766796   19.635953   21.382963 C.3        1 MOL1        -0.1856
      17    H9      21.704141   20.402575   22.167550 H          1 MOL1         0.0742
      18    H10     22.332562   20.089684   20.557533 H          1 MOL1         0.0742
      19    C7      22.562594   18.412890   21.890755 C.3        1 MOL1        -0.2871
      20    H11     22.059978   17.917966   22.729403 H          1 MOL1         0.0754
      21    H12     23.560362   18.718550   22.231120 H          1 MOL1         0.0754
      22    H13     22.693224   17.672991   21.090398 H          1 MOL1         0.0754
@<TRIPOS>BOND
    1     1     2    1
    2     1     3    2
    3     1     4    1
    4     4     5    1
    5     4     6    1
    6     4     7    1
    7     7     8    1
    8     7     9    1
    9     7    10    1
   10    10    11    1
   11    10    12    1
   12    10    13    1
   13    13    14    1
   14    13    15    1
   15    13    16    1
   16    16    17    1
   17    16    18    1
   18    16    19    1
   19    19    20    1
   20    19    21    1
   21    19    22    1
@<TRIPOS>SUBSTRUCTURE
       1 MOL1            1 RESIDUE      1      MOL     
@<SCITEGIC>MOL_PROPERTY
VConf Rank
SciTegic.value.IntegerValue
498

@<SCITEGIC>MOL_PROPERTY
Conf_Id
SciTegic.value.IntegerValue
82

@<SCITEGIC>MOL_PROPERTY
Delta U+W
SciTegic.value.DoubleValue
3.438

@<SCITEGIC>MOL_PROPERTY
U+W
SciTegic.value.DoubleValue
-49.721

@<SCITEGIC>MOL_PROPERTY
Grad RMS
SciTegic.value.DoubleValue
0.000000

@<SCITEGIC>MOL_PROPERTY
U
SciTegic.value.DoubleValue
11.773

@<SCITEGIC>MOL_PROPERTY
W
SciTegic.value.DoubleValue
-61.495

@<SCITEGIC>MOL_PROPERTY
W(PB)
SciTegic.value.DoubleValue
-63.749

@<SCITEGIC>MOL_PROPERTY
W(SA)
SciTegic.value.DoubleValue
2.254

@<SCITEGIC>MOL_PROPERTY
Valence
SciTegic.value.DoubleValue
10.419

@<SCITEGIC>MOL_PROPERTY
Coulomb
SciTegic.value.DoubleValue
0.565

@<SCITEGIC>MOL_PROPERTY
VdW
SciTegic.value.DoubleValue
0.789

@<SCITEGIC>MOL_PROPERTY
VdW6
SciTegic.value.DoubleValue
-8.847

@<SCITEGIC>MOL_PROPERTY
VdW12
SciTegic.value.DoubleValue
9.636

@<SCITEGIC>MOL_PROPERTY
Bond
SciTegic.value.DoubleValue
0.200

@<SCITEGIC>MOL_PROPERTY
Angle
SciTegic.value.DoubleValue
3.187

@<SCITEGIC>MOL_PROPERTY
Pdih
SciTegic.value.DoubleValue
7.032

@<SCITEGIC>MOL_PROPERTY
Idih
SciTegic.value.DoubleValue
0.001

@<SCITEGIC>MOL_PROPERTY
Tether
SciTegic.value.DoubleValue
0.000

@<TRIPOS>MOLECULE
guest-s21_confgen4.mol2 : confsearch ligand conformer 499
          22          21           1
SMALL
USER_CHARGES
 
@<TRIPOS>ATOM
       1    C1      17.632496   16.498438   22.081857 C.2        1 MOL1         0.6145
       2    O1      18.202057   15.424944   22.095428 O.co2      1 MOL1        -0.6735
       3    O2      16.626496   16.733595   22.721860 O.co2      1 MOL1        -0.6735
       4    C2      18.199966   17.602676   21.194144 C.3        1 MOL1        -0.1985
       5    H1      17.418059   18.352639   21.023755 H          1 MOL1         0.0740
       6    H2      18.427138   17.154136   20.219877 H          1 MOL1         0.0740
       7    C3      19.475392   18.278449   21.761869 C.3        1 MOL1        -0.1882
       8    H3      20.232774   17.510627   21.971866 H          1 MOL1         0.0742
       9    H4      19.890374   18.937387   20.988890 H          1 MOL1         0.0742
      10    C4      19.193591   19.103139   23.039193 C.3        1 MOL1        -0.1880
      11    H5      18.676431   18.468411   23.771658 H          1 MOL1         0.0742
      12    H6      18.500907   19.921390   22.799701 H          1 MOL1         0.0742
      13    C5      20.461639   19.682614   23.715053 C.3        1 MOL1        -0.1880
      14    H7      20.141400   20.193956   24.633118 H          1 MOL1         0.0742
      15    H8      21.119887   18.866390   24.042797 H          1 MOL1         0.0742
      16    C6      21.252647   20.695910   22.850510 C.3        1 MOL1        -0.1856
      17    H9      21.649090   21.483006   23.506719 H          1 MOL1         0.0742
      18    H10     20.580336   21.199245   22.142087 H          1 MOL1         0.0742
      19    C7      22.442253   20.057380   22.099415 C.3        1 MOL1        -0.2871
      20    H11     23.157241   19.615370   22.805464 H          1 MOL1         0.0754
      21    H12     22.976208   20.815034   21.511476 H          1 MOL1         0.0754
      22    H13     22.115585   19.269149   21.411750 H          1 MOL1         0.0754
@<TRIPOS>BOND
    1     1     2    1
    2     1     3    2
    3     1     4    1
    4     4     5    1
    5     4     6    1
    6     4     7    1
    7     7     8    1
    8     7     9    1
    9     7    10    1
   10    10    11    1
   11    10    12    1
   12    10    13    1
   13    13    14    1
   14    13    15    1
   15    13    16    1
   16    16    17    1
   17    16    18    1
   18    16    19    1
   19    19    20    1
   20    19    21    1
   21    19    22    1
@<TRIPOS>SUBSTRUCTURE
       1 MOL1            1 RESIDUE      1      MOL     
@<SCITEGIC>MOL_PROPERTY
VConf Rank
SciTegic.value.IntegerValue
499

@<SCITEGIC>MOL_PROPERTY
Conf_Id
SciTegic.value.IntegerValue
94

@<SCITEGIC>MOL_PROPERTY
Delta U+W
SciTegic.value.DoubleValue
3.471

@<SCITEGIC>MOL_PROPERTY
U+W
SciTegic.value.DoubleValue
-49.688

@<SCITEGIC>MOL_PROPERTY
Grad RMS
SciTegic.value.DoubleValue
0.000000

@<SCITEGIC>MOL_PROPERTY
U
SciTegic.value.DoubleValue
11.773

@<SCITEGIC>MOL_PROPERTY
W
SciTegic.value.DoubleValue
-61.461

@<SCITEGIC>MOL_PROPERTY
W(PB)
SciTegic.value.DoubleValue
-63.710

@<SCITEGIC>MOL_PROPERTY
W(SA)
SciTegic.value.DoubleValue
2.248

@<SCITEGIC>MOL_PROPERTY
Valence
SciTegic.value.DoubleValue
10.419

@<SCITEGIC>MOL_PROPERTY
Coulomb
SciTegic.value.DoubleValue
0.566

@<SCITEGIC>MOL_PROPERTY
VdW
SciTegic.value.DoubleValue
0.789

@<SCITEGIC>MOL_PROPERTY
VdW6
SciTegic.value.DoubleValue
-8.847

@<SCITEGIC>MOL_PROPERTY
VdW12
SciTegic.value.DoubleValue
9.636

@<SCITEGIC>MOL_PROPERTY
Bond
SciTegic.value.DoubleValue
0.200

@<SCITEGIC>MOL_PROPERTY
Angle
SciTegic.value.DoubleValue
3.187

@<SCITEGIC>MOL_PROPERTY
Pdih
SciTegic.value.DoubleValue
7.032

@<SCITEGIC>MOL_PROPERTY
Idih
SciTegic.value.DoubleValue
0.001

@<SCITEGIC>MOL_PROPERTY
Tether
SciTegic.value.DoubleValue
0.000

@<TRIPOS>MOLECULE
guest-s21_confgen4.mol2 : confsearch ligand conformer 500
          22          21           1
SMALL
USER_CHARGES
 
@<TRIPOS>ATOM
       1    C1      22.519214   20.398758   23.785125 C.2        1 MOL1         0.6145
       2    O1      23.236688   20.012992   24.686854 O.co2      1 MOL1        -0.6735
       3    O2      22.336665   21.571797   23.525841 O.co2      1 MOL1        -0.6735
       4    C2      21.793388   19.353627   22.945594 C.3        1 MOL1        -0.1985
       5    H1      22.430441   18.463366   22.883702 H          1 MOL1         0.0740
       6    H2      21.691924   19.753036   21.930108 H          1 MOL1         0.0740
       7    C3      20.404418   18.978341   23.523847 C.3        1 MOL1        -0.1882
       8    H3      20.530910   18.660339   24.567865 H          1 MOL1         0.0742
       9    H4      19.765332   19.870814   23.553634 H          1 MOL1         0.0742
      10    C4      19.696532   17.842196   22.743792 C.3        1 MOL1        -0.1880
      11    H5      18.750088   17.602759   23.246174 H          1 MOL1         0.0742
      12    H6      20.307370   16.931804   22.811689 H          1 MOL1         0.0742
      13    C5      19.419887   18.141775   21.246833 C.3        1 MOL1        -0.1880
      14    H7      20.373951   18.219927   20.709335 H          1 MOL1         0.0742
      15    H8      18.902105   17.278522   20.807240 H          1 MOL1         0.0742
      16    C6      18.584100   19.416373   20.973359 C.3        1 MOL1        -0.1856
      17    H9      18.476776   19.538422   19.886853 H          1 MOL1         0.0742
      18    H10     19.123256   20.305294   21.327102 H          1 MOL1         0.0742
      19    C7      17.178057   19.371830   21.609646 C.3        1 MOL1        -0.2871
      20    H11     16.626706   18.481022   21.281883 H          1 MOL1         0.0754
      21    H12     16.596542   20.256227   21.319081 H          1 MOL1         0.0754
      22    H13     17.236812   19.357145   22.705222 H          1 MOL1         0.0754
@<TRIPOS>BOND
    1     1     2    1
    2     1     3    2
    3     1     4    1
    4     4     5    1
    5     4     6    1
    6     4     7    1
    7     7     8    1
    8     7     9    1
    9     7    10    1
   10    10    11    1
   11    10    12    1
   12    10    13    1
   13    13    14    1
   14    13    15    1
   15    13    16    1
   16    16    17    1
   17    16    18    1
   18    16    19    1
   19    19    20    1
   20    19    21    1
   21    19    22    1
@<TRIPOS>SUBSTRUCTURE
       1 MOL1            1 RESIDUE      1      MOL     
@<SCITEGIC>MOL_PROPERTY
VConf Rank
SciTegic.value.IntegerValue
500

@<SCITEGIC>MOL_PROPERTY
Conf_Id
SciTegic.value.IntegerValue
56

@<SCITEGIC>MOL_PROPERTY
Delta U+W
SciTegic.value.DoubleValue
0.853

@<SCITEGIC>MOL_PROPERTY
U+W
SciTegic.value.DoubleValue
-52.307

@<SCITEGIC>MOL_PROPERTY
Grad RMS
SciTegic.value.DoubleValue
0.000000

@<SCITEGIC>MOL_PROPERTY
U
SciTegic.value.DoubleValue
8.874

@<SCITEGIC>MOL_PROPERTY
W
SciTegic.value.DoubleValue
-61.181

@<SCITEGIC>MOL_PROPERTY
W(PB)
SciTegic.value.DoubleValue
-63.413

@<SCITEGIC>MOL_PROPERTY
W(SA)
SciTegic.value.DoubleValue
2.232

@<SCITEGIC>MOL_PROPERTY
Valence
SciTegic.value.DoubleValue
8.479

@<SCITEGIC>MOL_PROPERTY
Coulomb
SciTegic.value.DoubleValue
-0.357

@<SCITEGIC>MOL_PROPERTY
VdW
SciTegic.value.DoubleValue
0.753

@<SCITEGIC>MOL_PROPERTY
VdW6
SciTegic.value.DoubleValue
-9.081

@<SCITEGIC>MOL_PROPERTY
VdW12
SciTegic.value.DoubleValue
9.833

@<SCITEGIC>MOL_PROPERTY
Bond
SciTegic.value.DoubleValue
0.221

@<SCITEGIC>MOL_PROPERTY
Angle
SciTegic.value.DoubleValue
3.208

@<SCITEGIC>MOL_PROPERTY
Pdih
SciTegic.value.DoubleValue
5.050

@<SCITEGIC>MOL_PROPERTY
Idih
SciTegic.value.DoubleValue
0.000

@<SCITEGIC>MOL_PROPERTY
Tether
SciTegic.value.DoubleValue
0.000

@<TRIPOS>MOLECULE
guest-s21_confgen4.mol2 : confsearch ligand conformer 501
          22          21           1
SMALL
USER_CHARGES
 
@<TRIPOS>ATOM
       1    C1      20.410293   15.382354   20.321326 C.2        1 MOL1         0.6145
       2    O1      21.500395   15.708394   19.892635 O.co2      1 MOL1        -0.6735
       3    O2      19.914099   14.293210   20.112812 O.co2      1 MOL1        -0.6735
       4    C2      19.601085   16.367934   21.165922 C.3        1 MOL1        -0.1985
       5    H1      19.396572   15.883195   22.127781 H          1 MOL1         0.0740
       6    H2      18.635494   16.510457   20.666633 H          1 MOL1         0.0740
       7    C3      20.275800   17.744791   21.405570 C.3        1 MOL1        -0.1882
       8    H3      21.245358   17.594379   21.900364 H          1 MOL1         0.0742
       9    H4      20.483425   18.222300   20.437909 H          1 MOL1         0.0742
      10    C4      19.392671   18.675218   22.265165 C.3        1 MOL1        -0.1880
      11    H5      19.186458   18.195736   23.231966 H          1 MOL1         0.0742
      12    H6      18.423956   18.823977   21.768585 H          1 MOL1         0.0742
      13    C5      20.065634   20.044241   22.502241 C.3        1 MOL1        -0.1880
      14    H7      21.034451   19.895988   22.998769 H          1 MOL1         0.0742
      15    H8      20.272017   20.524134   21.535683 H          1 MOL1         0.0742
      16    C6      19.183688   20.974514   23.361232 C.3        1 MOL1        -0.1856
      17    H9      18.976810   20.498625   24.329843 H          1 MOL1         0.0742
      18    H10     18.214283   21.126742   22.866705 H          1 MOL1         0.0742
      19    C7      19.859217   22.340554   23.595605 C.3        1 MOL1        -0.2871
      20    H11     20.817584   22.220399   24.117623 H          1 MOL1         0.0754
      21    H12     19.218840   22.988886   24.207713 H          1 MOL1         0.0754
      22    H13     20.049279   22.853247   22.643539 H          1 MOL1         0.0754
@<TRIPOS>BOND
    1     1     2    1
    2     1     3    2
    3     1     4    1
    4     4     5    1
    5     4     6    1
    6     4     7    1
    7     7     8    1
    8     7     9    1
    9     7    10    1
   10    10    11    1
   11    10    12    1
   12    10    13    1
   13    13    14    1
   14    13    15    1
   15    13    16    1
   16    16    17    1
   17    16    18    1
   18    16    19    1
   19    19    20    1
   20    19    21    1
   21    19    22    1
@<TRIPOS>SUBSTRUCTURE
       1 MOL1            1 RESIDUE      1      MOL     
@<SCITEGIC>MOL_PROPERTY
VConf Rank
SciTegic.value.IntegerValue
501

@<SCITEGIC>MOL_PROPERTY
Conf_Id
SciTegic.value.IntegerValue
0

@<SCITEGIC>MOL_PROPERTY
Delta U+W
SciTegic.value.DoubleValue
0.000

@<SCITEGIC>MOL_PROPERTY
U+W
SciTegic.value.DoubleValue
-53.159

@<SCITEGIC>MOL_PROPERTY
Grad RMS
SciTegic.value.DoubleValue
0.000000

@<SCITEGIC>MOL_PROPERTY
U
SciTegic.value.DoubleValue
6.763

@<SCITEGIC>MOL_PROPERTY
W
SciTegic.value.DoubleValue
-59.922

@<SCITEGIC>MOL_PROPERTY
W(PB)
SciTegic.value.DoubleValue
-62.256

@<SCITEGIC>MOL_PROPERTY
W(SA)
SciTegic.value.DoubleValue
2.334

@<SCITEGIC>MOL_PROPERTY
Valence
SciTegic.value.DoubleValue
7.600

@<SCITEGIC>MOL_PROPERTY
Coulomb
SciTegic.value.DoubleValue
-2.139

@<SCITEGIC>MOL_PROPERTY
VdW
SciTegic.value.DoubleValue
1.302

@<SCITEGIC>MOL_PROPERTY
VdW6
SciTegic.value.DoubleValue
-6.786

@<SCITEGIC>MOL_PROPERTY
VdW12
SciTegic.value.DoubleValue
8.088

@<SCITEGIC>MOL_PROPERTY
Bond
SciTegic.value.DoubleValue
0.134

@<SCITEGIC>MOL_PROPERTY
Angle
SciTegic.value.DoubleValue
2.720

@<SCITEGIC>MOL_PROPERTY
Pdih
SciTegic.value.DoubleValue
4.746

@<SCITEGIC>MOL_PROPERTY
Idih
SciTegic.value.DoubleValue
0.000

@<SCITEGIC>MOL_PROPERTY
Tether
SciTegic.value.DoubleValue
0.000

@<TRIPOS>MOLECULE
guest-s21_confgen4.mol2 : confsearch ligand conformer 502
          22          21           1
SMALL
USER_CHARGES
 
@<TRIPOS>ATOM
       1    C1      22.675862   17.758768   19.634536 C.2        1 MOL1         0.6145
       2    O1      23.304149   18.661889   19.118728 O.co2      1 MOL1        -0.6735
       3    O2      22.441115   16.701671   19.083291 O.co2      1 MOL1        -0.6735
       4    C2      22.132846   17.972383   21.042981 C.3        1 MOL1        -0.1985
       5    H1      22.834492   18.618359   21.584341 H          1 MOL1         0.0740
       6    H2      22.123536   17.002770   21.555256 H          1 MOL1         0.0740
       7    C3      20.715417   18.595952   21.053215 C.3        1 MOL1        -0.1882
       8    H3      20.739053   19.559510   20.525418 H          1 MOL1         0.0742
       9    H4      20.028118   17.943971   20.496336 H          1 MOL1         0.0742
      10    C4      20.188419   18.802006   22.489772 C.3        1 MOL1        -0.1880
      11    H5      20.878341   19.453135   23.044039 H          1 MOL1         0.0742
      12    H6      20.167263   17.837179   23.014969 H          1 MOL1         0.0742
      13    C5      18.775349   19.423679   22.496823 C.3        1 MOL1        -0.1880
      14    H7      18.796081   20.388532   21.971701 H          1 MOL1         0.0742
      15    H8      18.085117   18.772846   21.942636 H          1 MOL1         0.0742
      16    C6      18.247953   19.629935   23.932226 C.3        1 MOL1        -0.1856
      17    H9      18.934830   20.282199   24.489208 H          1 MOL1         0.0742
      18    H10     18.223878   18.666511   24.460156 H          1 MOL1         0.0742
      19    C7      16.836665   20.250901   23.934967 C.3        1 MOL1        -0.2871
      20    H11     16.121523   19.603189   23.411088 H          1 MOL1         0.0754
      21    H12     16.837822   21.231007   23.440197 H          1 MOL1         0.0754
      22    H13     16.477452   20.390588   24.962851 H          1 MOL1         0.0754
@<TRIPOS>BOND
    1     1     2    1
    2     1     3    2
    3     1     4    1
    4     4     5    1
    5     4     6    1
    6     4     7    1
    7     7     8    1
    8     7     9    1
    9     7    10    1
   10    10    11    1
   11    10    12    1
   12    10    13    1
   13    13    14    1
   14    13    15    1
   15    13    16    1
   16    16    17    1
   17    16    18    1
   18    16    19    1
   19    19    20    1
   20    19    21    1
   21    19    22    1
@<TRIPOS>SUBSTRUCTURE
       1 MOL1            1 RESIDUE      1      MOL     
@<SCITEGIC>MOL_PROPERTY
VConf Rank
SciTegic.value.IntegerValue
502

@<SCITEGIC>MOL_PROPERTY
Conf_Id
SciTegic.value.IntegerValue
10

@<SCITEGIC>MOL_PROPERTY
Delta U+W
SciTegic.value.DoubleValue
-1.291

@<SCITEGIC>MOL_PROPERTY
U+W
SciTegic.value.DoubleValue
-54.451

@<SCITEGIC>MOL_PROPERTY
Grad RMS
SciTegic.value.DoubleValue
0.000000

@<SCITEGIC>MOL_PROPERTY
U
SciTegic.value.DoubleValue
5.779

@<SCITEGIC>MOL_PROPERTY
W
SciTegic.value.DoubleValue
-60.230

@<SCITEGIC>MOL_PROPERTY
W(PB)
SciTegic.value.DoubleValue
-62.557

@<SCITEGIC>MOL_PROPERTY
W(SA)
SciTegic.value.DoubleValue
2.328

@<SCITEGIC>MOL_PROPERTY
Valence
SciTegic.value.DoubleValue
7.101

@<SCITEGIC>MOL_PROPERTY
Coulomb
SciTegic.value.DoubleValue
-2.079

@<SCITEGIC>MOL_PROPERTY
VdW
SciTegic.value.DoubleValue
0.757

@<SCITEGIC>MOL_PROPERTY
VdW6
SciTegic.value.DoubleValue
-6.496

@<SCITEGIC>MOL_PROPERTY
VdW12
SciTegic.value.DoubleValue
7.253

@<SCITEGIC>MOL_PROPERTY
Bond
SciTegic.value.DoubleValue
0.100

@<SCITEGIC>MOL_PROPERTY
Angle
SciTegic.value.DoubleValue
2.262

@<SCITEGIC>MOL_PROPERTY
Pdih
SciTegic.value.DoubleValue
4.738

@<SCITEGIC>MOL_PROPERTY
Idih
SciTegic.value.DoubleValue
0.001

@<SCITEGIC>MOL_PROPERTY
Tether
SciTegic.value.DoubleValue
0.000

@<TRIPOS>MOLECULE
guest-s21_confgen4.mol2 : confsearch ligand conformer 503
          22          21           1
SMALL
USER_CHARGES
 
@<TRIPOS>ATOM
       1    C1      21.153969   15.288055   21.773140 C.2        1 MOL1         0.6145
       2    O1      22.335337   15.168777   22.031200 O.co2      1 MOL1        -0.6735
       3    O2      20.348311   14.384133   21.874618 O.co2      1 MOL1        -0.6735
       4    C2      20.650918   16.652980   21.316929 C.3        1 MOL1        -0.1985
       5    H1      19.817270   16.494220   20.622329 H          1 MOL1         0.0740
       6    H2      21.454607   17.141153   20.752634 H          1 MOL1         0.0740
       7    C3      20.201529   17.553065   22.494235 C.3        1 MOL1        -0.1882
       8    H3      19.406321   17.044219   23.056580 H          1 MOL1         0.0742
       9    H4      21.043341   17.692096   23.186747 H          1 MOL1         0.0742
      10    C4      19.696939   18.928440   22.006304 C.3        1 MOL1        -0.1880
      11    H5      18.854246   18.786450   21.315969 H          1 MOL1         0.0742
      12    H6      20.495997   19.424638   21.440211 H          1 MOL1         0.0742
      13    C5      19.253038   19.824442   23.185453 C.3        1 MOL1        -0.1880
      14    H7      18.504851   19.285054   23.782285 H          1 MOL1         0.0742
      15    H8      20.106954   20.010274   23.851207 H          1 MOL1         0.0742
      16    C6      18.643767   21.173234   22.737284 C.3        1 MOL1        -0.1856
      17    H9      18.249623   21.692998   23.621440 H          1 MOL1         0.0742
      18    H10     17.785262   20.991257   22.076101 H          1 MOL1         0.0742
      19    C7      19.658232   22.097068   22.029045 C.3        1 MOL1        -0.2871
      20    H11     19.202777   23.071853   21.811618 H          1 MOL1         0.0754
      21    H12     19.994153   21.668023   21.076795 H          1 MOL1         0.0754
      22    H13     20.539982   22.269220   22.659930 H          1 MOL1         0.0754
@<TRIPOS>BOND
    1     1     2    1
    2     1     3    2
    3     1     4    1
    4     4     5    1
    5     4     6    1
    6     4     7    1
    7     7     8    1
    8     7     9    1
    9     7    10    1
   10    10    11    1
   11    10    12    1
   12    10    13    1
   13    13    14    1
   14    13    15    1
   15    13    16    1
   16    16    17    1
   17    16    18    1
   18    16    19    1
   19    19    20    1
   20    19    21    1
   21    19    22    1
@<TRIPOS>SUBSTRUCTURE
       1 MOL1            1 RESIDUE      1      MOL     
@<SCITEGIC>MOL_PROPERTY
VConf Rank
SciTegic.value.IntegerValue
503

@<SCITEGIC>MOL_PROPERTY
Conf_Id
SciTegic.value.IntegerValue
37

@<SCITEGIC>MOL_PROPERTY
Delta U+W
SciTegic.value.DoubleValue
-0.345

@<SCITEGIC>MOL_PROPERTY
U+W
SciTegic.value.DoubleValue
-53.504

@<SCITEGIC>MOL_PROPERTY
Grad RMS
SciTegic.value.DoubleValue
0.000000

@<SCITEGIC>MOL_PROPERTY
U
SciTegic.value.DoubleValue
6.751

@<SCITEGIC>MOL_PROPERTY
W
SciTegic.value.DoubleValue
-60.255

@<SCITEGIC>MOL_PROPERTY
W(PB)
SciTegic.value.DoubleValue
-62.592

@<SCITEGIC>MOL_PROPERTY
W(SA)
SciTegic.value.DoubleValue
2.336

@<SCITEGIC>MOL_PROPERTY
Valence
SciTegic.value.DoubleValue
7.602

@<SCITEGIC>MOL_PROPERTY
Coulomb
SciTegic.value.DoubleValue
-1.744

@<SCITEGIC>MOL_PROPERTY
VdW
SciTegic.value.DoubleValue
0.894

@<SCITEGIC>MOL_PROPERTY
VdW6
SciTegic.value.DoubleValue
-7.110

@<SCITEGIC>MOL_PROPERTY
VdW12
SciTegic.value.DoubleValue
8.004

@<SCITEGIC>MOL_PROPERTY
Bond
SciTegic.value.DoubleValue
0.131

@<SCITEGIC>MOL_PROPERTY
Angle
SciTegic.value.DoubleValue
2.489

@<SCITEGIC>MOL_PROPERTY
Pdih
SciTegic.value.DoubleValue
4.982

@<SCITEGIC>MOL_PROPERTY
Idih
SciTegic.value.DoubleValue
0.001

@<SCITEGIC>MOL_PROPERTY
Tether
SciTegic.value.DoubleValue
0.000

@<TRIPOS>MOLECULE
guest-s21_confgen4.mol2 : confsearch ligand conformer 504
          22          21           1
SMALL
USER_CHARGES
 
@<TRIPOS>ATOM
       1    C1      22.958878   17.384837   20.621819 C.2        1 MOL1         0.6145
       2    O1      22.696377   16.415614   19.937603 O.co2      1 MOL1        -0.6735
       3    O2      24.026534   17.545979   21.179135 O.co2      1 MOL1        -0.6735
       4    C2      21.881455   18.447056   20.809069 C.3        1 MOL1        -0.1985
       5    H1      21.280236   18.487772   19.892808 H          1 MOL1         0.0740
       6    H2      22.376668   19.419736   20.915380 H          1 MOL1         0.0740
       7    C3      20.972782   18.173438   22.032835 C.3        1 MOL1        -0.1882
       8    H3      20.494124   17.191072   21.917116 H          1 MOL1         0.0742
       9    H4      21.591481   18.122190   22.939530 H          1 MOL1         0.0742
      10    C4      19.891025   19.262477   22.200600 C.3        1 MOL1        -0.1880
      11    H5      19.283862   19.310144   21.287228 H          1 MOL1         0.0742
      12    H6      20.372403   20.242927   22.318278 H          1 MOL1         0.0742
      13    C5      18.984258   18.982703   23.421159 C.3        1 MOL1        -0.1880
      14    H7      18.462026   18.026093   23.282931 H          1 MOL1         0.0742
      15    H8      19.613044   18.867620   24.314647 H          1 MOL1         0.0742
      16    C6      17.951135   20.101751   23.688925 C.3        1 MOL1        -0.1856
      17    H9      18.470299   21.059193   23.834128 H          1 MOL1         0.0742
      18    H10     17.432382   19.883965   24.632694 H          1 MOL1         0.0742
      19    C7      16.900730   20.245444   22.566334 C.3        1 MOL1        -0.2871
      20    H11     16.389094   19.291727   22.382518 H          1 MOL1         0.0754
      21    H12     17.360822   20.576467   21.626949 H          1 MOL1         0.0754
      22    H13     16.141609   20.988144   22.843920 H          1 MOL1         0.0754
@<TRIPOS>BOND
    1     1     2    1
    2     1     3    2
    3     1     4    1
    4     4     5    1
    5     4     6    1
    6     4     7    1
    7     7     8    1
    8     7     9    1
    9     7    10    1
   10    10    11    1
   11    10    12    1
   12    10    13    1
   13    13    14    1
   14    13    15    1
   15    13    16    1
   16    16    17    1
   17    16    18    1
   18    16    19    1
   19    19    20    1
   20    19    21    1
   21    19    22    1
@<TRIPOS>SUBSTRUCTURE
       1 MOL1            1 RESIDUE      1      MOL     
@<SCITEGIC>MOL_PROPERTY
VConf Rank
SciTegic.value.IntegerValue
504

@<SCITEGIC>MOL_PROPERTY
Conf_Id
SciTegic.value.IntegerValue
38

@<SCITEGIC>MOL_PROPERTY
Delta U+W
SciTegic.value.DoubleValue
-0.439

@<SCITEGIC>MOL_PROPERTY
U+W
SciTegic.value.DoubleValue
-53.598

@<SCITEGIC>MOL_PROPERTY
Grad RMS
SciTegic.value.DoubleValue
0.000000

@<SCITEGIC>MOL_PROPERTY
U
SciTegic.value.DoubleValue
6.751

@<SCITEGIC>MOL_PROPERTY
W
SciTegic.value.DoubleValue
-60.350

@<SCITEGIC>MOL_PROPERTY
W(PB)
SciTegic.value.DoubleValue
-62.659

@<SCITEGIC>MOL_PROPERTY
W(SA)
SciTegic.value.DoubleValue
2.309

@<SCITEGIC>MOL_PROPERTY
Valence
SciTegic.value.DoubleValue
7.602

@<SCITEGIC>MOL_PROPERTY
Coulomb
SciTegic.value.DoubleValue
-1.744

@<SCITEGIC>MOL_PROPERTY
VdW
SciTegic.value.DoubleValue
0.893

@<SCITEGIC>MOL_PROPERTY
VdW6
SciTegic.value.DoubleValue
-7.110

@<SCITEGIC>MOL_PROPERTY
VdW12
SciTegic.value.DoubleValue
8.004

@<SCITEGIC>MOL_PROPERTY
Bond
SciTegic.value.DoubleValue
0.131

@<SCITEGIC>MOL_PROPERTY
Angle
SciTegic.value.DoubleValue
2.489

@<SCITEGIC>MOL_PROPERTY
Pdih
SciTegic.value.DoubleValue
4.981

@<SCITEGIC>MOL_PROPERTY
Idih
SciTegic.value.DoubleValue
0.001

@<SCITEGIC>MOL_PROPERTY
Tether
SciTegic.value.DoubleValue
0.000

@<TRIPOS>MOLECULE
guest-s21_confgen4.mol2 : confsearch ligand conformer 505
          22          21           1
SMALL
USER_CHARGES
 
@<TRIPOS>ATOM
       1    C1      20.984247   21.510744   19.632089 C.2        1 MOL1         0.6145
       2    O1      21.679661   22.475555   19.881290 O.co2      1 MOL1        -0.6735
       3    O2      20.282710   21.424472   18.643688 O.co2      1 MOL1        -0.6735
       4    C2      20.974193   20.354553   20.625774 C.3        1 MOL1        -0.1985
       5    H1      21.965114   20.298333   21.091962 H          1 MOL1         0.0740
       6    H2      20.828630   19.429152   20.057527 H          1 MOL1         0.0740
       7    C3      19.879176   20.508339   21.713385 C.3        1 MOL1        -0.1882
       8    H3      19.998040   21.488944   22.194771 H          1 MOL1         0.0742
       9    H4      18.888097   20.514357   21.239020 H          1 MOL1         0.0742
      10    C4      19.930033   19.412778   22.805118 C.3        1 MOL1        -0.1880
      11    H5      19.218533   19.686968   23.594368 H          1 MOL1         0.0742
      12    H6      20.924597   19.403863   23.271413 H          1 MOL1         0.0742
      13    C5      19.588936   17.998681   22.274076 C.3        1 MOL1        -0.1880
      14    H7      18.595095   18.008182   21.806219 H          1 MOL1         0.0742
      15    H8      20.301518   17.721942   21.486852 H          1 MOL1         0.0742
      16    C6      19.635599   16.904775   23.366462 C.3        1 MOL1        -0.1856
      17    H9      20.624720   16.899741   23.844904 H          1 MOL1         0.0742
      18    H10     19.518802   15.923526   22.886092 H          1 MOL1         0.0742
      19    C7      18.538234   17.062770   24.441395 C.3        1 MOL1        -0.2871
      20    H11     18.684161   17.974558   25.033655 H          1 MOL1         0.0754
      21    H12     18.555022   16.211545   25.134255 H          1 MOL1         0.0754
      22    H13     17.541839   17.105059   23.982557 H          1 MOL1         0.0754
@<TRIPOS>BOND
    1     1     2    1
    2     1     3    2
    3     1     4    1
    4     4     5    1
    5     4     6    1
    6     4     7    1
    7     7     8    1
    8     7     9    1
    9     7    10    1
   10    10    11    1
   11    10    12    1
   12    10    13    1
   13    13    14    1
   14    13    15    1
   15    13    16    1
   16    16    17    1
   17    16    18    1
   18    16    19    1
   19    19    20    1
   20    19    21    1
   21    19    22    1
@<TRIPOS>SUBSTRUCTURE
       1 MOL1            1 RESIDUE      1      MOL     
@<SCITEGIC>MOL_PROPERTY
VConf Rank
SciTegic.value.IntegerValue
505

@<SCITEGIC>MOL_PROPERTY
Conf_Id
SciTegic.value.IntegerValue
60

@<SCITEGIC>MOL_PROPERTY
Delta U+W
SciTegic.value.DoubleValue
0.386

@<SCITEGIC>MOL_PROPERTY
U+W
SciTegic.value.DoubleValue
-52.773

@<SCITEGIC>MOL_PROPERTY
Grad RMS
SciTegic.value.DoubleValue
0.000000

@<SCITEGIC>MOL_PROPERTY
U
SciTegic.value.DoubleValue
7.689

@<SCITEGIC>MOL_PROPERTY
W
SciTegic.value.DoubleValue
-60.463

@<SCITEGIC>MOL_PROPERTY
W(PB)
SciTegic.value.DoubleValue
-62.772

@<SCITEGIC>MOL_PROPERTY
W(SA)
SciTegic.value.DoubleValue
2.309

@<SCITEGIC>MOL_PROPERTY
Valence
SciTegic.value.DoubleValue
8.197

@<SCITEGIC>MOL_PROPERTY
Coulomb
SciTegic.value.DoubleValue
-1.561

@<SCITEGIC>MOL_PROPERTY
VdW
SciTegic.value.DoubleValue
1.053

@<SCITEGIC>MOL_PROPERTY
VdW6
SciTegic.value.DoubleValue
-7.737

@<SCITEGIC>MOL_PROPERTY
VdW12
SciTegic.value.DoubleValue
8.790

@<SCITEGIC>MOL_PROPERTY
Bond
SciTegic.value.DoubleValue
0.181

@<SCITEGIC>MOL_PROPERTY
Angle
SciTegic.value.DoubleValue
2.780

@<SCITEGIC>MOL_PROPERTY
Pdih
SciTegic.value.DoubleValue
5.235

@<SCITEGIC>MOL_PROPERTY
Idih
SciTegic.value.DoubleValue
0.001

@<SCITEGIC>MOL_PROPERTY
Tether
SciTegic.value.DoubleValue
0.000

@<TRIPOS>MOLECULE
guest-s21_confgen4.mol2 : confsearch ligand conformer 506
          22          21           1
SMALL
USER_CHARGES
 
@<TRIPOS>ATOM
       1    C1      19.666285   15.655966   24.079060 C.2        1 MOL1         0.6145
       2    O1      19.248835   14.785422   23.341209 O.co2      1 MOL1        -0.6735
       3    O2      19.672084   15.565119   25.290783 O.co2      1 MOL1        -0.6735
       4    C2      20.190802   16.942313   23.450983 C.3        1 MOL1        -0.1985
       5    H1      20.651148   16.680255   22.491884 H          1 MOL1         0.0740
       6    H2      20.984569   17.336761   24.096552 H          1 MOL1         0.0740
       7    C3      19.081970   18.008750   23.253960 C.3        1 MOL1        -0.1882
       8    H3      18.317045   17.621210   22.566939 H          1 MOL1         0.0742
       9    H4      18.578598   18.173546   24.216720 H          1 MOL1         0.0742
      10    C4      19.611737   19.366882   22.734782 C.3        1 MOL1        -0.1880
      11    H5      20.381902   19.747438   23.419393 H          1 MOL1         0.0742
      12    H6      18.784707   20.087605   22.764903 H          1 MOL1         0.0742
      13    C5      20.179980   19.296282   21.295987 C.3        1 MOL1        -0.1880
      14    H7      21.009166   18.578246   21.265103 H          1 MOL1         0.0742
      15    H8      19.410303   18.913917   20.611810 H          1 MOL1         0.0742
      16    C6      20.705174   20.654868   20.775864 C.3        1 MOL1        -0.1856
      17    H9      21.210706   20.491087   19.814168 H          1 MOL1         0.0742
      18    H10     21.467280   21.046347   21.463783 H          1 MOL1         0.0742
      19    C7      19.593337   21.707912   20.576938 C.3        1 MOL1        -0.2871
      20    H11     18.802276   21.324740   19.919271 H          1 MOL1         0.0754
      21    H12     20.003708   22.616468   20.117547 H          1 MOL1         0.0754
      22    H13     19.137841   21.996747   21.532198 H          1 MOL1         0.0754
@<TRIPOS>BOND
    1     1     2    1
    2     1     3    2
    3     1     4    1
    4     4     5    1
    5     4     6    1
    6     4     7    1
    7     7     8    1
    8     7     9    1
    9     7    10    1
   10    10    11    1
   11    10    12    1
   12    10    13    1
   13    13    14    1
   14    13    15    1
   15    13    16    1
   16    16    17    1
   17    16    18    1
   18    16    19    1
   19    19    20    1
   20    19    21    1
   21    19    22    1
@<TRIPOS>SUBSTRUCTURE
       1 MOL1            1 RESIDUE      1      MOL     
@<SCITEGIC>MOL_PROPERTY
VConf Rank
SciTegic.value.IntegerValue
506

@<SCITEGIC>MOL_PROPERTY
Conf_Id
SciTegic.value.IntegerValue
28

@<SCITEGIC>MOL_PROPERTY
Delta U+W
SciTegic.value.DoubleValue
0.351

@<SCITEGIC>MOL_PROPERTY
U+W
SciTegic.value.DoubleValue
-52.808

@<SCITEGIC>MOL_PROPERTY
Grad RMS
SciTegic.value.DoubleValue
0.000000

@<SCITEGIC>MOL_PROPERTY
U
SciTegic.value.DoubleValue
7.689

@<SCITEGIC>MOL_PROPERTY
W
SciTegic.value.DoubleValue
-60.498

@<SCITEGIC>MOL_PROPERTY
W(PB)
SciTegic.value.DoubleValue
-62.768

@<SCITEGIC>MOL_PROPERTY
W(SA)
SciTegic.value.DoubleValue
2.270

@<SCITEGIC>MOL_PROPERTY
Valence
SciTegic.value.DoubleValue
8.197

@<SCITEGIC>MOL_PROPERTY
Coulomb
SciTegic.value.DoubleValue
-1.561

@<SCITEGIC>MOL_PROPERTY
VdW
SciTegic.value.DoubleValue
1.053

@<SCITEGIC>MOL_PROPERTY
VdW6
SciTegic.value.DoubleValue
-7.737

@<SCITEGIC>MOL_PROPERTY
VdW12
SciTegic.value.DoubleValue
8.791

@<SCITEGIC>MOL_PROPERTY
Bond
SciTegic.value.DoubleValue
0.181

@<SCITEGIC>MOL_PROPERTY
Angle
SciTegic.value.DoubleValue
2.780

@<SCITEGIC>MOL_PROPERTY
Pdih
SciTegic.value.DoubleValue
5.235

@<SCITEGIC>MOL_PROPERTY
Idih
SciTegic.value.DoubleValue
0.001

@<SCITEGIC>MOL_PROPERTY
Tether
SciTegic.value.DoubleValue
0.000

@<TRIPOS>MOLECULE
guest-s21_confgen4.mol2 : confsearch ligand conformer 507
          22          21           1
SMALL
USER_CHARGES
 
@<TRIPOS>ATOM
       1    C1      22.921313   16.699043   22.577358 C.2        1 MOL1         0.6145
       2    O1      22.988285   15.747330   21.824878 O.co2      1 MOL1        -0.6735
       3    O2      23.867669   17.412047   22.846602 O.co2      1 MOL1        -0.6735
       4    C2      21.570559   17.028698   23.202749 C.3        1 MOL1        -0.1985
       5    H1      21.750563   17.461711   24.194085 H          1 MOL1         0.0740
       6    H2      21.026545   16.088495   23.353360 H          1 MOL1         0.0740
       7    C3      20.729504   18.001531   22.339900 C.3        1 MOL1        -0.1882
       8    H3      21.302629   18.925384   22.186629 H          1 MOL1         0.0742
       9    H4      20.565642   17.557598   21.348246 H          1 MOL1         0.0742
      10    C4      19.368140   18.322087   22.999440 C.3        1 MOL1        -0.1880
      11    H5      19.532020   18.814053   23.967997 H          1 MOL1         0.0742
      12    H6      18.844873   17.380178   23.213830 H          1 MOL1         0.0742
      13    C5      18.449569   19.203257   22.120050 C.3        1 MOL1        -0.1880
      14    H7      18.282135   18.709751   21.152915 H          1 MOL1         0.0742
      15    H8      17.466981   19.274982   22.606159 H          1 MOL1         0.0742
      16    C6      18.999732   20.628840   21.889125 C.3        1 MOL1        -0.1856
      17    H9      19.945849   20.584145   21.333947 H          1 MOL1         0.0742
      18    H10     19.216991   21.103447   22.855951 H          1 MOL1         0.0742
      19    C7      17.998959   21.500689   21.104239 C.3        1 MOL1        -0.2871
      20    H11     17.051311   21.599654   21.649698 H          1 MOL1         0.0754
      21    H12     17.784465   21.062861   20.120529 H          1 MOL1         0.0754
      22    H13     18.405163   22.508112   20.945601 H          1 MOL1         0.0754
@<TRIPOS>BOND
    1     1     2    1
    2     1     3    2
    3     1     4    1
    4     4     5    1
    5     4     6    1
    6     4     7    1
    7     7     8    1
    8     7     9    1
    9     7    10    1
   10    10    11    1
   11    10    12    1
   12    10    13    1
   13    13    14    1
   14    13    15    1
   15    13    16    1
   16    16    17    1
   17    16    18    1
   18    16    19    1
   19    19    20    1
   20    19    21    1
   21    19    22    1
@<TRIPOS>SUBSTRUCTURE
       1 MOL1            1 RESIDUE      1      MOL     
@<SCITEGIC>MOL_PROPERTY
VConf Rank
SciTegic.value.IntegerValue
507

@<SCITEGIC>MOL_PROPERTY
Conf_Id
SciTegic.value.IntegerValue
50

@<SCITEGIC>MOL_PROPERTY
Delta U+W
SciTegic.value.DoubleValue
-0.486

@<SCITEGIC>MOL_PROPERTY
U+W
SciTegic.value.DoubleValue
-53.646

@<SCITEGIC>MOL_PROPERTY
Grad RMS
SciTegic.value.DoubleValue
0.000000

@<SCITEGIC>MOL_PROPERTY
U
SciTegic.value.DoubleValue
7.026

@<SCITEGIC>MOL_PROPERTY
W
SciTegic.value.DoubleValue
-60.672

@<SCITEGIC>MOL_PROPERTY
W(PB)
SciTegic.value.DoubleValue
-62.964

@<SCITEGIC>MOL_PROPERTY
W(SA)
SciTegic.value.DoubleValue
2.292

@<SCITEGIC>MOL_PROPERTY
Valence
SciTegic.value.DoubleValue
7.637

@<SCITEGIC>MOL_PROPERTY
Coulomb
SciTegic.value.DoubleValue
-1.488

@<SCITEGIC>MOL_PROPERTY
VdW
SciTegic.value.DoubleValue
0.877

@<SCITEGIC>MOL_PROPERTY
VdW6
SciTegic.value.DoubleValue
-7.165

@<SCITEGIC>MOL_PROPERTY
VdW12
SciTegic.value.DoubleValue
8.043

@<SCITEGIC>MOL_PROPERTY
Bond
SciTegic.value.DoubleValue
0.134

@<SCITEGIC>MOL_PROPERTY
Angle
SciTegic.value.DoubleValue
2.513

@<SCITEGIC>MOL_PROPERTY
Pdih
SciTegic.value.DoubleValue
4.990

@<SCITEGIC>MOL_PROPERTY
Idih
SciTegic.value.DoubleValue
0.001

@<SCITEGIC>MOL_PROPERTY
Tether
SciTegic.value.DoubleValue
0.000

@<TRIPOS>MOLECULE
guest-s21_confgen4.mol2 : confsearch ligand conformer 508
          22          21           1
SMALL
USER_CHARGES
 
@<TRIPOS>ATOM
       1    C1      19.496581   17.201057   25.515341 C.2        1 MOL1         0.6145
       2    O1      20.042908   17.712616   26.472579 O.co2      1 MOL1        -0.6735
       3    O2      19.536708   16.010807   25.274198 O.co2      1 MOL1        -0.6735
       4    C2      18.735746   18.105541   24.552341 C.3        1 MOL1        -0.1985
       5    H1      18.311244   18.936192   25.128910 H          1 MOL1         0.0740
       6    H2      17.895476   17.534102   24.139966 H          1 MOL1         0.0740
       7    C3      19.625437   18.648502   23.406941 C.3        1 MOL1        -0.1882
       8    H3      20.466567   19.210194   23.836248 H          1 MOL1         0.0742
       9    H4      20.053912   17.799619   22.858057 H          1 MOL1         0.0742
      10    C4      18.828053   19.558182   22.443753 C.3        1 MOL1        -0.1880
      11    H5      18.345275   20.356244   23.024257 H          1 MOL1         0.0742
      12    H6      18.018809   18.982180   21.974356 H          1 MOL1         0.0742
      13    C5      19.702431   20.210964   21.346985 C.3        1 MOL1        -0.1880
      14    H7      19.085111   20.931057   20.792632 H          1 MOL1         0.0742
      15    H8      20.509463   20.790317   21.816006 H          1 MOL1         0.0742
      16    C6      20.302703   19.193747   20.350374 C.3        1 MOL1        -0.1856
      17    H9      19.500406   18.578392   19.920417 H          1 MOL1         0.0742
      18    H10     20.986153   18.510948   20.871948 H          1 MOL1         0.0742
      19    C7      21.070297   19.900377   19.214949 C.3        1 MOL1        -0.2871
      20    H11     21.896754   20.502115   19.615281 H          1 MOL1         0.0754
      21    H12     20.406876   20.564460   18.645543 H          1 MOL1         0.0754
      22    H13     21.492959   19.165142   18.517915 H          1 MOL1         0.0754
@<TRIPOS>BOND
    1     1     2    1
    2     1     3    2
    3     1     4    1
    4     4     5    1
    5     4     6    1
    6     4     7    1
    7     7     8    1
    8     7     9    1
    9     7    10    1
   10    10    11    1
   11    10    12    1
   12    10    13    1
   13    13    14    1
   14    13    15    1
   15    13    16    1
   16    16    17    1
   17    16    18    1
   18    16    19    1
   19    19    20    1
   20    19    21    1
   21    19    22    1
@<TRIPOS>SUBSTRUCTURE
       1 MOL1            1 RESIDUE      1      MOL     
@<SCITEGIC>MOL_PROPERTY
VConf Rank
SciTegic.value.IntegerValue
508

@<SCITEGIC>MOL_PROPERTY
Conf_Id
SciTegic.value.IntegerValue
51

@<SCITEGIC>MOL_PROPERTY
Delta U+W
SciTegic.value.DoubleValue
-0.517

@<SCITEGIC>MOL_PROPERTY
U+W
SciTegic.value.DoubleValue
-53.677

@<SCITEGIC>MOL_PROPERTY
Grad RMS
SciTegic.value.DoubleValue
0.000000

@<SCITEGIC>MOL_PROPERTY
U
SciTegic.value.DoubleValue
7.026

@<SCITEGIC>MOL_PROPERTY
W
SciTegic.value.DoubleValue
-60.703

@<SCITEGIC>MOL_PROPERTY
W(PB)
SciTegic.value.DoubleValue
-63.007

@<SCITEGIC>MOL_PROPERTY
W(SA)
SciTegic.value.DoubleValue
2.304

@<SCITEGIC>MOL_PROPERTY
Valence
SciTegic.value.DoubleValue
7.638

@<SCITEGIC>MOL_PROPERTY
Coulomb
SciTegic.value.DoubleValue
-1.488

@<SCITEGIC>MOL_PROPERTY
VdW
SciTegic.value.DoubleValue
0.877

@<SCITEGIC>MOL_PROPERTY
VdW6
SciTegic.value.DoubleValue
-7.165

@<SCITEGIC>MOL_PROPERTY
VdW12
SciTegic.value.DoubleValue
8.042

@<SCITEGIC>MOL_PROPERTY
Bond
SciTegic.value.DoubleValue
0.134

@<SCITEGIC>MOL_PROPERTY
Angle
SciTegic.value.DoubleValue
2.513

@<SCITEGIC>MOL_PROPERTY
Pdih
SciTegic.value.DoubleValue
4.990

@<SCITEGIC>MOL_PROPERTY
Idih
SciTegic.value.DoubleValue
0.001

@<SCITEGIC>MOL_PROPERTY
Tether
SciTegic.value.DoubleValue
0.000

@<TRIPOS>MOLECULE
guest-s21_confgen4.mol2 : confsearch ligand conformer 509
          22          21           1
SMALL
USER_CHARGES
 
@<TRIPOS>ATOM
       1    C1      19.354634   22.256720   22.775789 C.2        1 MOL1         0.6145
       2    O1      18.222799   22.492140   23.150526 O.co2      1 MOL1        -0.6735
       3    O2      20.347708   22.542500   23.415261 O.co2      1 MOL1        -0.6735
       4    C2      19.537065   21.582289   21.418956 C.3        1 MOL1        -0.1985
       5    H1      20.566334   21.750790   21.079666 H          1 MOL1         0.0740
       6    H2      18.880141   22.095383   20.706758 H          1 MOL1         0.0740
       7    C3      19.215190   20.065256   21.420254 C.3        1 MOL1        -0.1882
       8    H3      18.191502   19.910737   21.788818 H          1 MOL1         0.0742
       9    H4      19.238184   19.695157   20.386309 H          1 MOL1         0.0742
      10    C4      20.208571   19.247767   22.276112 C.3        1 MOL1        -0.1880
      11    H5      20.178812   19.600938   23.316204 H          1 MOL1         0.0742
      12    H6      21.231400   19.415926   21.912025 H          1 MOL1         0.0742
      13    C5      19.888437   17.737967   22.237776 C.3        1 MOL1        -0.1880
      14    H7      18.865488   17.570629   22.602030 H          1 MOL1         0.0742
      15    H8      19.920398   17.381766   21.198950 H          1 MOL1         0.0742
      16    C6      20.879599   16.921004   23.092887 C.3        1 MOL1        -0.1856
      17    H9      20.849072   17.273389   24.133269 H          1 MOL1         0.0742
      18    H10     21.903940   17.084591   22.730359 H          1 MOL1         0.0742
      19    C7      20.556400   15.413927   23.052701 C.3        1 MOL1        -0.2871
      20    H11     19.547874   15.218070   23.439891 H          1 MOL1         0.0754
      21    H12     21.270440   14.848662   23.665651 H          1 MOL1         0.0754
      22    H13     20.610645   15.027818   22.026361 H          1 MOL1         0.0754
@<TRIPOS>BOND
    1     1     2    1
    2     1     3    2
    3     1     4    1
    4     4     5    1
    5     4     6    1
    6     4     7    1
    7     7     8    1
    8     7     9    1
    9     7    10    1
   10    10    11    1
   11    10    12    1
   12    10    13    1
   13    13    14    1
   14    13    15    1
   15    13    16    1
   16    16    17    1
   17    16    18    1
   18    16    19    1
   19    19    20    1
   20    19    21    1
   21    19    22    1
@<TRIPOS>SUBSTRUCTURE
       1 MOL1            1 RESIDUE      1      MOL     
@<SCITEGIC>MOL_PROPERTY
VConf Rank
SciTegic.value.IntegerValue
509

@<SCITEGIC>MOL_PROPERTY
Conf_Id
SciTegic.value.IntegerValue
43

@<SCITEGIC>MOL_PROPERTY
Delta U+W
SciTegic.value.DoubleValue
-0.129

@<SCITEGIC>MOL_PROPERTY
U+W
SciTegic.value.DoubleValue
-53.289

@<SCITEGIC>MOL_PROPERTY
Grad RMS
SciTegic.value.DoubleValue
0.000000

@<SCITEGIC>MOL_PROPERTY
U
SciTegic.value.DoubleValue
7.937

@<SCITEGIC>MOL_PROPERTY
W
SciTegic.value.DoubleValue
-61.225

@<SCITEGIC>MOL_PROPERTY
W(PB)
SciTegic.value.DoubleValue
-63.523

@<SCITEGIC>MOL_PROPERTY
W(SA)
SciTegic.value.DoubleValue
2.297

@<SCITEGIC>MOL_PROPERTY
Valence
SciTegic.value.DoubleValue
7.358

@<SCITEGIC>MOL_PROPERTY
Coulomb
SciTegic.value.DoubleValue
-0.022

@<SCITEGIC>MOL_PROPERTY
VdW
SciTegic.value.DoubleValue
0.601

@<SCITEGIC>MOL_PROPERTY
VdW6
SciTegic.value.DoubleValue
-7.363

@<SCITEGIC>MOL_PROPERTY
VdW12
SciTegic.value.DoubleValue
7.964

@<SCITEGIC>MOL_PROPERTY
Bond
SciTegic.value.DoubleValue
0.121

@<SCITEGIC>MOL_PROPERTY
Angle
SciTegic.value.DoubleValue
2.425

@<SCITEGIC>MOL_PROPERTY
Pdih
SciTegic.value.DoubleValue
4.811

@<SCITEGIC>MOL_PROPERTY
Idih
SciTegic.value.DoubleValue
0.000

@<SCITEGIC>MOL_PROPERTY
Tether
SciTegic.value.DoubleValue
0.000

@<TRIPOS>MOLECULE
guest-s21_confgen4.mol2 : confsearch ligand conformer 510
          22          21           1
SMALL
USER_CHARGES
 
@<TRIPOS>ATOM
       1    C1      17.628120   19.065220   19.563957 C.2        1 MOL1         0.6145
       2    O1      16.568542   18.502853   19.758739 O.co2      1 MOL1        -0.6735
       3    O2      18.441294   18.699964   18.738046 O.co2      1 MOL1        -0.6735
       4    C2      17.944611   20.308722   20.390193 C.3        1 MOL1        -0.1985
       5    H1      17.047046   20.938336   20.392105 H          1 MOL1         0.0740
       6    H2      18.730604   20.877982   19.879250 H          1 MOL1         0.0740
       7    C3      18.367135   20.004712   21.851032 C.3        1 MOL1        -0.1882
       8    H3      18.439640   20.950328   22.405193 H          1 MOL1         0.0742
       9    H4      17.582911   19.410560   22.340550 H          1 MOL1         0.0742
      10    C4      19.718127   19.259608   21.936059 C.3        1 MOL1        -0.1880
      11    H5      20.495783   19.851377   21.433989 H          1 MOL1         0.0742
      12    H6      19.648266   18.304021   21.398119 H          1 MOL1         0.0742
      13    C5      20.134205   18.995338   23.399103 C.3        1 MOL1        -0.1880
      14    H7      20.207543   19.949693   23.938444 H          1 MOL1         0.0742
      15    H8      19.356086   18.403498   23.900464 H          1 MOL1         0.0742
      16    C6      21.482924   18.250580   23.484799 C.3        1 MOL1        -0.1856
      17    H9      22.264205   18.840459   22.985695 H          1 MOL1         0.0742
      18    H10     21.412795   17.294426   22.947813 H          1 MOL1         0.0742
      19    C7      21.894846   17.987889   24.947219 C.3        1 MOL1        -0.2871
      20    H11     22.003111   18.930220   25.500109 H          1 MOL1         0.0754
      21    H12     22.855293   17.457936   24.989370 H          1 MOL1         0.0754
      22    H13     21.145298   17.372515   25.461896 H          1 MOL1         0.0754
@<TRIPOS>BOND
    1     1     2    1
    2     1     3    2
    3     1     4    1
    4     4     5    1
    5     4     6    1
    6     4     7    1
    7     7     8    1
    8     7     9    1
    9     7    10    1
   10    10    11    1
   11    10    12    1
   12    10    13    1
   13    13    14    1
   14    13    15    1
   15    13    16    1
   16    16    17    1
   17    16    18    1
   18    16    19    1
   19    19    20    1
   20    19    21    1
   21    19    22    1
@<TRIPOS>SUBSTRUCTURE
       1 MOL1            1 RESIDUE      1      MOL     
@<SCITEGIC>MOL_PROPERTY
VConf Rank
SciTegic.value.IntegerValue
510

@<SCITEGIC>MOL_PROPERTY
Conf_Id
SciTegic.value.IntegerValue
44

@<SCITEGIC>MOL_PROPERTY
Delta U+W
SciTegic.value.DoubleValue
-0.155

@<SCITEGIC>MOL_PROPERTY
U+W
SciTegic.value.DoubleValue
-53.314

@<SCITEGIC>MOL_PROPERTY
Grad RMS
SciTegic.value.DoubleValue
0.000000

@<SCITEGIC>MOL_PROPERTY
U
SciTegic.value.DoubleValue
7.937

@<SCITEGIC>MOL_PROPERTY
W
SciTegic.value.DoubleValue
-61.252

@<SCITEGIC>MOL_PROPERTY
W(PB)
SciTegic.value.DoubleValue
-63.556

@<SCITEGIC>MOL_PROPERTY
W(SA)
SciTegic.value.DoubleValue
2.304

@<SCITEGIC>MOL_PROPERTY
Valence
SciTegic.value.DoubleValue
7.358

@<SCITEGIC>MOL_PROPERTY
Coulomb
SciTegic.value.DoubleValue
-0.021

@<SCITEGIC>MOL_PROPERTY
VdW
SciTegic.value.DoubleValue
0.600

@<SCITEGIC>MOL_PROPERTY
VdW6
SciTegic.value.DoubleValue
-7.363

@<SCITEGIC>MOL_PROPERTY
VdW12
SciTegic.value.DoubleValue
7.964

@<SCITEGIC>MOL_PROPERTY
Bond
SciTegic.value.DoubleValue
0.121

@<SCITEGIC>MOL_PROPERTY
Angle
SciTegic.value.DoubleValue
2.425

@<SCITEGIC>MOL_PROPERTY
Pdih
SciTegic.value.DoubleValue
4.811

@<SCITEGIC>MOL_PROPERTY
Idih
SciTegic.value.DoubleValue
0.001

@<SCITEGIC>MOL_PROPERTY
Tether
SciTegic.value.DoubleValue
0.000

@<TRIPOS>MOLECULE
guest-s21_confgen4.mol2 : confsearch ligand conformer 511
          22          21           1
SMALL
USER_CHARGES
 
@<TRIPOS>ATOM
       1    C1      20.385340   20.707976   25.350671 C.2        1 MOL1         0.6145
       2    O1      19.355124   21.069593   25.884347 O.co2      1 MOL1        -0.6735
       3    O2      21.339980   21.437585   25.168460 O.co2      1 MOL1        -0.6735
       4    C2      20.490988   19.252756   24.902915 C.3        1 MOL1        -0.1985
       5    H1      20.119794   18.629899   25.725286 H          1 MOL1         0.0740
       6    H2      21.550531   19.003107   24.769002 H          1 MOL1         0.0740
       7    C3      19.697349   18.929387   23.610168 C.3        1 MOL1        -0.1882
       8    H3      19.707094   17.842496   23.459379 H          1 MOL1         0.0742
       9    H4      18.646875   19.221983   23.745427 H          1 MOL1         0.0742
      10    C4      20.281971   19.634245   22.362528 C.3        1 MOL1        -0.1880
      11    H5      21.319023   19.308181   22.204391 H          1 MOL1         0.0742
      12    H6      20.323057   20.716628   22.546240 H          1 MOL1         0.0742
      13    C5      19.459686   19.390910   21.074716 C.3        1 MOL1        -0.1880
      14    H7      18.422643   19.716921   21.233386 H          1 MOL1         0.0742
      15    H8      19.866568   20.027767   20.277369 H          1 MOL1         0.0742
      16    C6      19.477128   17.920593   20.599017 C.3        1 MOL1        -0.1856
      17    H9      19.000771   17.274488   21.347913 H          1 MOL1         0.0742
      18    H10     20.515553   17.577666   20.492862 H          1 MOL1         0.0742
      19    C7      18.742719   17.753171   19.253524 C.3        1 MOL1        -0.2871
      20    H11     17.693074   18.063767   19.338135 H          1 MOL1         0.0754
      21    H12     18.760847   16.704036   18.930957 H          1 MOL1         0.0754
      22    H13     19.216943   18.356997   18.468754 H          1 MOL1         0.0754
@<TRIPOS>BOND
    1     1     2    1
    2     1     3    2
    3     1     4    1
    4     4     5    1
    5     4     6    1
    6     4     7    1
    7     7     8    1
    8     7     9    1
    9     7    10    1
   10    10    11    1
   11    10    12    1
   12    10    13    1
   13    13    14    1
   14    13    15    1
   15    13    16    1
   16    16    17    1
   17    16    18    1
   18    16    19    1
   19    19    20    1
   20    19    21    1
   21    19    22    1
@<TRIPOS>SUBSTRUCTURE
       1 MOL1            1 RESIDUE      1      MOL     
@<SCITEGIC>MOL_PROPERTY
VConf Rank
SciTegic.value.IntegerValue
511

@<SCITEGIC>MOL_PROPERTY
Conf_Id
SciTegic.value.IntegerValue
53

@<SCITEGIC>MOL_PROPERTY
Delta U+W
SciTegic.value.DoubleValue
0.723

@<SCITEGIC>MOL_PROPERTY
U+W
SciTegic.value.DoubleValue
-52.436

@<SCITEGIC>MOL_PROPERTY
Grad RMS
SciTegic.value.DoubleValue
0.000000

@<SCITEGIC>MOL_PROPERTY
U
SciTegic.value.DoubleValue
8.587

@<SCITEGIC>MOL_PROPERTY
W
SciTegic.value.DoubleValue
-61.022

@<SCITEGIC>MOL_PROPERTY
W(PB)
SciTegic.value.DoubleValue
-63.285

@<SCITEGIC>MOL_PROPERTY
W(SA)
SciTegic.value.DoubleValue
2.263

@<SCITEGIC>MOL_PROPERTY
Valence
SciTegic.value.DoubleValue
7.933

@<SCITEGIC>MOL_PROPERTY
Coulomb
SciTegic.value.DoubleValue
-0.124

@<SCITEGIC>MOL_PROPERTY
VdW
SciTegic.value.DoubleValue
0.778

@<SCITEGIC>MOL_PROPERTY
VdW6
SciTegic.value.DoubleValue
-7.981

@<SCITEGIC>MOL_PROPERTY
VdW12
SciTegic.value.DoubleValue
8.759

@<SCITEGIC>MOL_PROPERTY
Bond
SciTegic.value.DoubleValue
0.160

@<SCITEGIC>MOL_PROPERTY
Angle
SciTegic.value.DoubleValue
2.698

@<SCITEGIC>MOL_PROPERTY
Pdih
SciTegic.value.DoubleValue
5.074

@<SCITEGIC>MOL_PROPERTY
Idih
SciTegic.value.DoubleValue
0.001

@<SCITEGIC>MOL_PROPERTY
Tether
SciTegic.value.DoubleValue
0.000

@<TRIPOS>MOLECULE
guest-s21_confgen4.mol2 : confsearch ligand conformer 512
          22          21           1
SMALL
USER_CHARGES
 
@<TRIPOS>ATOM
       1    C1      16.763829   19.963245   23.465372 C.2        1 MOL1         0.6145
       2    O1      16.558986   19.450194   24.547679 O.co2      1 MOL1        -0.6735
       3    O2      16.008977   20.761123   22.945592 O.co2      1 MOL1        -0.6735
       4    C2      18.049183   19.603259   22.728980 C.3        1 MOL1        -0.1985
       5    H1      17.853837   19.665022   21.651805 H          1 MOL1         0.0740
       6    H2      18.283657   18.558823   22.963300 H          1 MOL1         0.0740
       7    C3      19.237543   20.520958   23.112076 C.3        1 MOL1        -0.1882
       8    H3      18.925075   21.568056   22.996448 H          1 MOL1         0.0742
       9    H4      19.469713   20.385503   24.177442 H          1 MOL1         0.0742
      10    C4      20.517413   20.294294   22.268736 C.3        1 MOL1        -0.1880
      11    H5      21.264745   21.029007   22.598339 H          1 MOL1         0.0742
      12    H6      20.319218   20.523834   21.212807 H          1 MOL1         0.0742
      13    C5      21.138148   18.880783   22.404323 C.3        1 MOL1        -0.1880
      14    H7      22.232177   18.976901   22.375101 H          1 MOL1         0.0742
      15    H8      20.895219   18.454516   23.387301 H          1 MOL1         0.0742
      16    C6      20.710860   17.912868   21.276795 C.3        1 MOL1        -0.1856
      17    H9      21.011842   18.326055   20.304231 H          1 MOL1         0.0742
      18    H10     19.619583   17.809297   21.249350 H          1 MOL1         0.0742
      19    C7      21.347048   16.519900   21.456338 C.3        1 MOL1        -0.2871
      20    H11     22.443011   16.584041   21.447183 H          1 MOL1         0.0754
      21    H12     21.040106   15.846972   20.645174 H          1 MOL1         0.0754
      22    H13     21.037819   16.067217   22.407556 H          1 MOL1         0.0754
@<TRIPOS>BOND
    1     1     2    1
    2     1     3    2
    3     1     4    1
    4     4     5    1
    5     4     6    1
    6     4     7    1
    7     7     8    1
    8     7     9    1
    9     7    10    1
   10    10    11    1
   11    10    12    1
   12    10    13    1
   13    13    14    1
   14    13    15    1
   15    13    16    1
   16    16    17    1
   17    16    18    1
   18    16    19    1
   19    19    20    1
   20    19    21    1
   21    19    22    1
@<TRIPOS>SUBSTRUCTURE
       1 MOL1            1 RESIDUE      1      MOL     
@<SCITEGIC>MOL_PROPERTY
VConf Rank
SciTegic.value.IntegerValue
512

@<SCITEGIC>MOL_PROPERTY
Conf_Id
SciTegic.value.IntegerValue
5

@<SCITEGIC>MOL_PROPERTY
Delta U+W
SciTegic.value.DoubleValue
2.167

@<SCITEGIC>MOL_PROPERTY
U+W
SciTegic.value.DoubleValue
-50.993

@<SCITEGIC>MOL_PROPERTY
Grad RMS
SciTegic.value.DoubleValue
0.000000

@<SCITEGIC>MOL_PROPERTY
U
SciTegic.value.DoubleValue
10.045

@<SCITEGIC>MOL_PROPERTY
W
SciTegic.value.DoubleValue
-61.037

@<SCITEGIC>MOL_PROPERTY
W(PB)
SciTegic.value.DoubleValue
-63.303

@<SCITEGIC>MOL_PROPERTY
W(SA)
SciTegic.value.DoubleValue
2.266

@<SCITEGIC>MOL_PROPERTY
Valence
SciTegic.value.DoubleValue
10.100

@<SCITEGIC>MOL_PROPERTY
Coulomb
SciTegic.value.DoubleValue
-0.883

@<SCITEGIC>MOL_PROPERTY
VdW
SciTegic.value.DoubleValue
0.828

@<SCITEGIC>MOL_PROPERTY
VdW6
SciTegic.value.DoubleValue
-8.177

@<SCITEGIC>MOL_PROPERTY
VdW12
SciTegic.value.DoubleValue
9.005

@<SCITEGIC>MOL_PROPERTY
Bond
SciTegic.value.DoubleValue
0.182

@<SCITEGIC>MOL_PROPERTY
Angle
SciTegic.value.DoubleValue
2.988

@<SCITEGIC>MOL_PROPERTY
Pdih
SciTegic.value.DoubleValue
6.930

@<SCITEGIC>MOL_PROPERTY
Idih
SciTegic.value.DoubleValue
0.001

@<SCITEGIC>MOL_PROPERTY
Tether
SciTegic.value.DoubleValue
0.000

@<TRIPOS>MOLECULE
guest-s21_confgen4.mol2 : confsearch ligand conformer 513
          22          21           1
SMALL
USER_CHARGES
 
@<TRIPOS>ATOM
       1    C1      21.031490   19.302213   25.461712 C.2        1 MOL1         0.6145
       2    O1      21.402528   20.450834   25.601605 O.co2      1 MOL1        -0.6735
       3    O2      21.154640   18.446853   26.315982 O.co2      1 MOL1        -0.6735
       4    C2      20.397277   18.906589   24.133082 C.3        1 MOL1        -0.1985
       5    H1      19.845831   19.775841   23.757531 H          1 MOL1         0.0740
       6    H2      19.668445   18.110604   24.326707 H          1 MOL1         0.0740
       7    C3      21.439322   18.436819   23.086850 C.3        1 MOL1        -0.1882
       8    H3      22.111552   19.272006   22.846384 H          1 MOL1         0.0742
       9    H4      22.067380   17.657870   23.540946 H          1 MOL1         0.0742
      10    C4      20.824269   17.872781   21.781384 C.3        1 MOL1        -0.1880
      11    H5      20.228849   16.976096   22.001352 H          1 MOL1         0.0742
      12    H6      21.653118   17.531782   21.146029 H          1 MOL1         0.0742
      13    C5      19.982959   18.891394   20.971238 C.3        1 MOL1        -0.1880
      14    H7      20.341894   19.912400   21.160116 H          1 MOL1         0.0742
      15    H8      20.145345   18.703726   19.901002 H          1 MOL1         0.0742
      16    C6      18.465457   18.793324   21.251110 C.3        1 MOL1        -0.1856
      17    H9      18.258512   18.945315   22.317148 H          1 MOL1         0.0742
      18    H10     18.110621   17.783511   21.002989 H          1 MOL1         0.0742
      19    C7      17.671008   19.827780   20.428866 C.3        1 MOL1        -0.2871
      20    H11     17.982010   20.850409   20.679596 H          1 MOL1         0.0754
      21    H12     16.595905   19.740889   20.632918 H          1 MOL1         0.0754
      22    H13     17.825060   19.676539   19.352425 H          1 MOL1         0.0754
@<TRIPOS>BOND
    1     1     2    1
    2     1     3    2
    3     1     4    1
    4     4     5    1
    5     4     6    1
    6     4     7    1
    7     7     8    1
    8     7     9    1
    9     7    10    1
   10    10    11    1
   11    10    12    1
   12    10    13    1
   13    13    14    1
   14    13    15    1
   15    13    16    1
   16    16    17    1
   17    16    18    1
   18    16    19    1
   19    19    20    1
   20    19    21    1
   21    19    22    1
@<TRIPOS>SUBSTRUCTURE
       1 MOL1            1 RESIDUE      1      MOL     
@<SCITEGIC>MOL_PROPERTY
VConf Rank
SciTegic.value.IntegerValue
513

@<SCITEGIC>MOL_PROPERTY
Conf_Id
SciTegic.value.IntegerValue
6

@<SCITEGIC>MOL_PROPERTY
Delta U+W
SciTegic.value.DoubleValue
2.118

@<SCITEGIC>MOL_PROPERTY
U+W
SciTegic.value.DoubleValue
-51.042

@<SCITEGIC>MOL_PROPERTY
Grad RMS
SciTegic.value.DoubleValue
0.000000

@<SCITEGIC>MOL_PROPERTY
U
SciTegic.value.DoubleValue
10.045

@<SCITEGIC>MOL_PROPERTY
W
SciTegic.value.DoubleValue
-61.086

@<SCITEGIC>MOL_PROPERTY
W(PB)
SciTegic.value.DoubleValue
-63.356

@<SCITEGIC>MOL_PROPERTY
W(SA)
SciTegic.value.DoubleValue
2.270

@<SCITEGIC>MOL_PROPERTY
Valence
SciTegic.value.DoubleValue
10.100

@<SCITEGIC>MOL_PROPERTY
Coulomb
SciTegic.value.DoubleValue
-0.883

@<SCITEGIC>MOL_PROPERTY
VdW
SciTegic.value.DoubleValue
0.828

@<SCITEGIC>MOL_PROPERTY
VdW6
SciTegic.value.DoubleValue
-8.177

@<SCITEGIC>MOL_PROPERTY
VdW12
SciTegic.value.DoubleValue
9.004

@<SCITEGIC>MOL_PROPERTY
Bond
SciTegic.value.DoubleValue
0.182

@<SCITEGIC>MOL_PROPERTY
Angle
SciTegic.value.DoubleValue
2.988

@<SCITEGIC>MOL_PROPERTY
Pdih
SciTegic.value.DoubleValue
6.930

@<SCITEGIC>MOL_PROPERTY
Idih
SciTegic.value.DoubleValue
0.001

@<SCITEGIC>MOL_PROPERTY
Tether
SciTegic.value.DoubleValue
0.000

@<TRIPOS>MOLECULE
guest-s21_confgen4.mol2 : confsearch ligand conformer 514
          22          21           1
SMALL
USER_CHARGES
 
@<TRIPOS>ATOM
       1    C1      21.436467   20.740522   21.607896 C.2        1 MOL1         0.6145
       2    O1      21.071655   21.005801   20.479165 O.co2      1 MOL1        -0.6735
       3    O2      22.426225   20.079727   21.854439 O.co2      1 MOL1        -0.6735
       4    C2      20.651577   21.326323   22.780176 C.3        1 MOL1        -0.1985
       5    H1      20.746247   22.415476   22.700707 H          1 MOL1         0.0740
       6    H2      21.141387   21.036467   23.717679 H          1 MOL1         0.0740
       7    C3      19.143274   20.951741   22.822496 C.3        1 MOL1        -0.1882
       8    H3      18.627840   21.691722   23.449535 H          1 MOL1         0.0742
       9    H4      18.704990   21.048229   21.819416 H          1 MOL1         0.0742
      10    C4      18.838556   19.548305   23.402522 C.3        1 MOL1        -0.1880
      11    H5      17.750670   19.458721   23.526832 H          1 MOL1         0.0742
      12    H6      19.272194   19.461795   24.408158 H          1 MOL1         0.0742
      13    C5      19.335063   18.380374   22.520521 C.3        1 MOL1        -0.1880
      14    H7      18.985093   18.522334   21.488816 H          1 MOL1         0.0742
      15    H8      20.431930   18.375947   22.490114 H          1 MOL1         0.0742
      16    C6      18.843728   17.016584   23.050248 C.3        1 MOL1        -0.1856
      17    H9      17.745369   17.002764   23.078016 H          1 MOL1         0.0742
      18    H10     19.191512   16.873920   24.082773 H          1 MOL1         0.0742
      19    C7      19.347807   15.852181   22.174183 C.3        1 MOL1        -0.2871
      20    H11     18.988162   15.953518   21.141829 H          1 MOL1         0.0754
      21    H12     18.990554   14.890646   22.565135 H          1 MOL1         0.0754
      22    H13     20.445186   15.823432   22.153341 H          1 MOL1         0.0754
@<TRIPOS>BOND
    1     1     2    1
    2     1     3    2
    3     1     4    1
    4     4     5    1
    5     4     6    1
    6     4     7    1
    7     7     8    1
    8     7     9    1
    9     7    10    1
   10    10    11    1
   11    10    12    1
   12    10    13    1
   13    13    14    1
   14    13    15    1
   15    13    16    1
   16    16    17    1
   17    16    18    1
   18    16    19    1
   19    19    20    1
   20    19    21    1
   21    19    22    1
@<TRIPOS>SUBSTRUCTURE
       1 MOL1            1 RESIDUE      1      MOL     
@<SCITEGIC>MOL_PROPERTY
VConf Rank
SciTegic.value.IntegerValue
514

@<SCITEGIC>MOL_PROPERTY
Conf_Id
SciTegic.value.IntegerValue
8

@<SCITEGIC>MOL_PROPERTY
Delta U+W
SciTegic.value.DoubleValue
1.886

@<SCITEGIC>MOL_PROPERTY
U+W
SciTegic.value.DoubleValue
-51.274

@<SCITEGIC>MOL_PROPERTY
Grad RMS
SciTegic.value.DoubleValue
0.000000

@<SCITEGIC>MOL_PROPERTY
U
SciTegic.value.DoubleValue
11.237

@<SCITEGIC>MOL_PROPERTY
W
SciTegic.value.DoubleValue
-62.510

@<SCITEGIC>MOL_PROPERTY
W(PB)
SciTegic.value.DoubleValue
-64.777

@<SCITEGIC>MOL_PROPERTY
W(SA)
SciTegic.value.DoubleValue
2.267

@<SCITEGIC>MOL_PROPERTY
Valence
SciTegic.value.DoubleValue
9.029

@<SCITEGIC>MOL_PROPERTY
Coulomb
SciTegic.value.DoubleValue
1.667

@<SCITEGIC>MOL_PROPERTY
VdW
SciTegic.value.DoubleValue
0.540

@<SCITEGIC>MOL_PROPERTY
VdW6
SciTegic.value.DoubleValue
-8.825

@<SCITEGIC>MOL_PROPERTY
VdW12
SciTegic.value.DoubleValue
9.365

@<SCITEGIC>MOL_PROPERTY
Bond
SciTegic.value.DoubleValue
0.186

@<SCITEGIC>MOL_PROPERTY
Angle
SciTegic.value.DoubleValue
3.195

@<SCITEGIC>MOL_PROPERTY
Pdih
SciTegic.value.DoubleValue
5.642

@<SCITEGIC>MOL_PROPERTY
Idih
SciTegic.value.DoubleValue
0.007

@<SCITEGIC>MOL_PROPERTY
Tether
SciTegic.value.DoubleValue
0.000

@<TRIPOS>MOLECULE
guest-s21_confgen4.mol2 : confsearch ligand conformer 515
          22          21           1
SMALL
USER_CHARGES
 
@<TRIPOS>ATOM
       1    C1      21.328685   16.348945   22.135618 C.2        1 MOL1         0.6145
       2    O1      20.310581   15.747515   21.855422 O.co2      1 MOL1        -0.6735
       3    O2      22.154919   15.939339   22.927368 O.co2      1 MOL1        -0.6735
       4    C2      21.601378   17.676610   21.434114 C.3        1 MOL1        -0.1985
       5    H1      20.930058   17.763217   20.572407 H          1 MOL1         0.0740
       6    H2      22.618874   17.627537   21.029126 H          1 MOL1         0.0740
       7    C3      21.476316   18.920337   22.356420 C.3        1 MOL1        -0.1882
       8    H3      22.218427   18.835195   23.162241 H          1 MOL1         0.0742
       9    H4      21.743926   19.820210   21.786381 H          1 MOL1         0.0742
      10    C4      20.076378   19.115675   22.989468 C.3        1 MOL1        -0.1880
      11    H5      20.135609   19.960254   23.687444 H          1 MOL1         0.0742
      12    H6      19.815040   18.234396   23.591110 H          1 MOL1         0.0742
      13    C5      18.961340   19.383166   21.948996 C.3        1 MOL1        -0.1880
      14    H7      19.228270   20.251989   21.332242 H          1 MOL1         0.0742
      15    H8      18.887948   18.525347   21.268045 H          1 MOL1         0.0742
      16    C6      17.569195   19.606983   22.584478 C.3        1 MOL1        -0.1856
      17    H9      17.306576   18.745854   23.214450 H          1 MOL1         0.0742
      18    H10     16.819153   19.644232   21.782464 H          1 MOL1         0.0742
      19    C7      17.473065   20.907169   23.412178 C.3        1 MOL1        -0.2871
      20    H11     18.117995   20.867946   24.298675 H          1 MOL1         0.0754
      21    H12     16.443556   21.065827   23.758353 H          1 MOL1         0.0754
      22    H13     17.765213   21.778087   22.811138 H          1 MOL1         0.0754
@<TRIPOS>BOND
    1     1     2    1
    2     1     3    2
    3     1     4    1
    4     4     5    1
    5     4     6    1
    6     4     7    1
    7     7     8    1
    8     7     9    1
    9     7    10    1
   10    10    11    1
   11    10    12    1
   12    10    13    1
   13    13    14    1
   14    13    15    1
   15    13    16    1
   16    16    17    1
   17    16    18    1
   18    16    19    1
   19    19    20    1
   20    19    21    1
   21    19    22    1
@<TRIPOS>SUBSTRUCTURE
       1 MOL1            1 RESIDUE      1      MOL     
@<SCITEGIC>MOL_PROPERTY
VConf Rank
SciTegic.value.IntegerValue
515

@<SCITEGIC>MOL_PROPERTY
Conf_Id
SciTegic.value.IntegerValue
93

@<SCITEGIC>MOL_PROPERTY
Delta U+W
SciTegic.value.DoubleValue
1.836

@<SCITEGIC>MOL_PROPERTY
U+W
SciTegic.value.DoubleValue
-51.323

@<SCITEGIC>MOL_PROPERTY
Grad RMS
SciTegic.value.DoubleValue
0.000000

@<SCITEGIC>MOL_PROPERTY
U
SciTegic.value.DoubleValue
10.427

@<SCITEGIC>MOL_PROPERTY
W
SciTegic.value.DoubleValue
-61.751

@<SCITEGIC>MOL_PROPERTY
W(PB)
SciTegic.value.DoubleValue
-63.980

@<SCITEGIC>MOL_PROPERTY
W(SA)
SciTegic.value.DoubleValue
2.230

@<SCITEGIC>MOL_PROPERTY
Valence
SciTegic.value.DoubleValue
8.446

@<SCITEGIC>MOL_PROPERTY
Coulomb
SciTegic.value.DoubleValue
1.306

@<SCITEGIC>MOL_PROPERTY
VdW
SciTegic.value.DoubleValue
0.676

@<SCITEGIC>MOL_PROPERTY
VdW6
SciTegic.value.DoubleValue
-8.928

@<SCITEGIC>MOL_PROPERTY
VdW12
SciTegic.value.DoubleValue
9.604

@<SCITEGIC>MOL_PROPERTY
Bond
SciTegic.value.DoubleValue
0.209

@<SCITEGIC>MOL_PROPERTY
Angle
SciTegic.value.DoubleValue
3.066

@<SCITEGIC>MOL_PROPERTY
Pdih
SciTegic.value.DoubleValue
5.170

@<SCITEGIC>MOL_PROPERTY
Idih
SciTegic.value.DoubleValue
0.001

@<SCITEGIC>MOL_PROPERTY
Tether
SciTegic.value.DoubleValue
0.000

@<TRIPOS>MOLECULE
guest-s21_confgen4.mol2 : confsearch ligand conformer 516
          22          21           1
SMALL
USER_CHARGES
 
@<TRIPOS>ATOM
       1    C1      18.383679   17.539996   20.147490 C.2        1 MOL1         0.6145
       2    O1      17.903189   18.029514   19.144092 O.co2      1 MOL1        -0.6735
       3    O2      17.738891   16.911425   20.963524 O.co2      1 MOL1        -0.6735
       4    C2      19.883978   17.699082   20.377615 C.3        1 MOL1        -0.1985
       5    H1      20.388634   17.399748   19.451632 H          1 MOL1         0.0740
       6    H2      20.199439   16.984353   21.145961 H          1 MOL1         0.0740
       7    C3      20.319714   19.141460   20.755544 C.3        1 MOL1        -0.1882
       8    H3      21.413838   19.175643   20.845288 H          1 MOL1         0.0742
       9    H4      20.058233   19.814899   19.927634 H          1 MOL1         0.0742
      10    C4      19.684237   19.686640   22.058495 C.3        1 MOL1        -0.1880
      11    H5      18.589677   19.689571   21.964399 H          1 MOL1         0.0742
      12    H6      19.987949   20.735122   22.170024 H          1 MOL1         0.0742
      13    C5      20.094430   18.893097   23.323198 C.3        1 MOL1        -0.1880
      14    H7      19.766635   17.850689   23.218936 H          1 MOL1         0.0742
      15    H8      21.189168   18.871034   23.410118 H          1 MOL1         0.0742
      16    C6      19.482413   19.456427   24.627073 C.3        1 MOL1        -0.1856
      17    H9      19.701627   18.759271   25.447496 H          1 MOL1         0.0742
      18    H10     18.387977   19.494128   24.536694 H          1 MOL1         0.0742
      19    C7      20.022679   20.852413   25.006733 C.3        1 MOL1        -0.2871
      20    H11     19.722973   21.612228   24.274471 H          1 MOL1         0.0754
      21    H12     21.118689   20.846087   25.068561 H          1 MOL1         0.0754
      22    H13     19.631130   21.161986   25.984359 H          1 MOL1         0.0754
@<TRIPOS>BOND
    1     1     2    1
    2     1     3    2
    3     1     4    1
    4     4     5    1
    5     4     6    1
    6     4     7    1
    7     7     8    1
    8     7     9    1
    9     7    10    1
   10    10    11    1
   11    10    12    1
   12    10    13    1
   13    13    14    1
   14    13    15    1
   15    13    16    1
   16    16    17    1
   17    16    18    1
   18    16    19    1
   19    19    20    1
   20    19    21    1
   21    19    22    1
@<TRIPOS>SUBSTRUCTURE
       1 MOL1            1 RESIDUE      1      MOL     
@<SCITEGIC>MOL_PROPERTY
VConf Rank
SciTegic.value.IntegerValue
516

@<SCITEGIC>MOL_PROPERTY
Conf_Id
SciTegic.value.IntegerValue
70

@<SCITEGIC>MOL_PROPERTY
Delta U+W
SciTegic.value.DoubleValue
1.803

@<SCITEGIC>MOL_PROPERTY
U+W
SciTegic.value.DoubleValue
-51.356

@<SCITEGIC>MOL_PROPERTY
Grad RMS
SciTegic.value.DoubleValue
0.000000

@<SCITEGIC>MOL_PROPERTY
U
SciTegic.value.DoubleValue
10.428

@<SCITEGIC>MOL_PROPERTY
W
SciTegic.value.DoubleValue
-61.784

@<SCITEGIC>MOL_PROPERTY
W(PB)
SciTegic.value.DoubleValue
-64.014

@<SCITEGIC>MOL_PROPERTY
W(SA)
SciTegic.value.DoubleValue
2.230

@<SCITEGIC>MOL_PROPERTY
Valence
SciTegic.value.DoubleValue
8.445

@<SCITEGIC>MOL_PROPERTY
Coulomb
SciTegic.value.DoubleValue
1.306

@<SCITEGIC>MOL_PROPERTY
VdW
SciTegic.value.DoubleValue
0.676

@<SCITEGIC>MOL_PROPERTY
VdW6
SciTegic.value.DoubleValue
-8.929

@<SCITEGIC>MOL_PROPERTY
VdW12
SciTegic.value.DoubleValue
9.605

@<SCITEGIC>MOL_PROPERTY
Bond
SciTegic.value.DoubleValue
0.209

@<SCITEGIC>MOL_PROPERTY
Angle
SciTegic.value.DoubleValue
3.066

@<SCITEGIC>MOL_PROPERTY
Pdih
SciTegic.value.DoubleValue
5.170

@<SCITEGIC>MOL_PROPERTY
Idih
SciTegic.value.DoubleValue
0.001

@<SCITEGIC>MOL_PROPERTY
Tether
SciTegic.value.DoubleValue
0.000

@<TRIPOS>MOLECULE
guest-s21_confgen4.mol2 : confsearch ligand conformer 517
          22          21           1
SMALL
USER_CHARGES
 
@<TRIPOS>ATOM
       1    C1      19.753860   15.955998   23.681255 C.2        1 MOL1         0.6145
       2    O1      19.893305   16.148273   24.873102 O.co2      1 MOL1        -0.6735
       3    O2      20.510432   15.275427   23.016951 O.co2      1 MOL1        -0.6735
       4    C2      18.550370   16.587498   22.987054 C.3        1 MOL1        -0.1985
       5    H1      17.676057   16.417849   23.626457 H          1 MOL1         0.0740
       6    H2      18.366034   16.050704   22.048592 H          1 MOL1         0.0740
       7    C3      18.706013   18.106248   22.714736 C.3        1 MOL1        -0.1882
       8    H3      17.752882   18.500580   22.337500 H          1 MOL1         0.0742
       9    H4      18.908587   18.618719   23.664457 H          1 MOL1         0.0742
      10    C4      19.826150   18.412364   21.691922 C.3        1 MOL1        -0.1880
      11    H5      19.650062   17.821828   20.782471 H          1 MOL1         0.0742
      12    H6      20.795801   18.083804   22.090834 H          1 MOL1         0.0742
      13    C5      19.910147   19.906380   21.298997 C.3        1 MOL1        -0.1880
      14    H7      20.641211   20.011615   20.485756 H          1 MOL1         0.0742
      15    H8      18.944002   20.235316   20.892514 H          1 MOL1         0.0742
      16    C6      20.324650   20.827942   22.468219 C.3        1 MOL1        -0.1856
      17    H9      21.264403   20.467407   22.908840 H          1 MOL1         0.0742
      18    H10     19.566244   20.797135   23.261459 H          1 MOL1         0.0742
      19    C7      20.503887   22.286852   22.002184 C.3        1 MOL1        -0.2871
      20    H11     21.284565   22.361196   21.233832 H          1 MOL1         0.0754
      21    H12     20.794913   22.928691   22.843853 H          1 MOL1         0.0754
      22    H13     19.569873   22.681970   21.581620 H          1 MOL1         0.0754
@<TRIPOS>BOND
    1     1     2    1
    2     1     3    2
    3     1     4    1
    4     4     5    1
    5     4     6    1
    6     4     7    1
    7     7     8    1
    8     7     9    1
    9     7    10    1
   10    10    11    1
   11    10    12    1
   12    10    13    1
   13    13    14    1
   14    13    15    1
   15    13    16    1
   16    16    17    1
   17    16    18    1
   18    16    19    1
   19    19    20    1
   20    19    21    1
   21    19    22    1
@<TRIPOS>SUBSTRUCTURE
       1 MOL1            1 RESIDUE      1      MOL     
@<SCITEGIC>MOL_PROPERTY
VConf Rank
SciTegic.value.IntegerValue
517

@<SCITEGIC>MOL_PROPERTY
Conf_Id
SciTegic.value.IntegerValue
85

@<SCITEGIC>MOL_PROPERTY
Delta U+W
SciTegic.value.DoubleValue
0.707

@<SCITEGIC>MOL_PROPERTY
U+W
SciTegic.value.DoubleValue
-52.452

@<SCITEGIC>MOL_PROPERTY
Grad RMS
SciTegic.value.DoubleValue
0.000000

@<SCITEGIC>MOL_PROPERTY
U
SciTegic.value.DoubleValue
8.925

@<SCITEGIC>MOL_PROPERTY
W
SciTegic.value.DoubleValue
-61.378

@<SCITEGIC>MOL_PROPERTY
W(PB)
SciTegic.value.DoubleValue
-63.661

@<SCITEGIC>MOL_PROPERTY
W(SA)
SciTegic.value.DoubleValue
2.283

@<SCITEGIC>MOL_PROPERTY
Valence
SciTegic.value.DoubleValue
7.881

@<SCITEGIC>MOL_PROPERTY
Coulomb
SciTegic.value.DoubleValue
0.349

@<SCITEGIC>MOL_PROPERTY
VdW
SciTegic.value.DoubleValue
0.695

@<SCITEGIC>MOL_PROPERTY
VdW6
SciTegic.value.DoubleValue
-8.049

@<SCITEGIC>MOL_PROPERTY
VdW12
SciTegic.value.DoubleValue
8.743

@<SCITEGIC>MOL_PROPERTY
Bond
SciTegic.value.DoubleValue
0.156

@<SCITEGIC>MOL_PROPERTY
Angle
SciTegic.value.DoubleValue
2.660

@<SCITEGIC>MOL_PROPERTY
Pdih
SciTegic.value.DoubleValue
5.064

@<SCITEGIC>MOL_PROPERTY
Idih
SciTegic.value.DoubleValue
0.001

@<SCITEGIC>MOL_PROPERTY
Tether
SciTegic.value.DoubleValue
0.000

@<TRIPOS>MOLECULE
guest-s21_confgen4.mol2 : confsearch ligand conformer 518
          22          21           1
SMALL
USER_CHARGES
 
@<TRIPOS>ATOM
       1    C1      19.408152   19.848067   25.541283 C.2        1 MOL1         0.6145
       2    O1      18.702300   19.080775   26.165764 O.co2      1 MOL1        -0.6735
       3    O2      20.461604   20.285072   25.961090 O.co2      1 MOL1        -0.6735
       4    C2      18.936524   20.307254   24.164290 C.3        1 MOL1        -0.1985
       5    H1      19.071067   21.394366   24.118720 H          1 MOL1         0.0740
       6    H2      17.859669   20.116895   24.080613 H          1 MOL1         0.0740
       7    C3      19.690981   19.643274   22.982930 C.3        1 MOL1        -0.1882
       8    H3      19.393799   20.148781   22.055540 H          1 MOL1         0.0742
       9    H4      20.771456   19.801514   23.104633 H          1 MOL1         0.0742
      10    C4      19.390950   18.131360   22.859731 C.3        1 MOL1        -0.1880
      11    H5      18.321788   17.987293   22.652758 H          1 MOL1         0.0742
      12    H6      19.584223   17.645296   23.825769 H          1 MOL1         0.0742
      13    C5      20.227896   17.402663   21.778506 C.3        1 MOL1        -0.1880
      14    H7      21.296488   17.461423   22.026671 H          1 MOL1         0.0742
      15    H8      19.969478   16.335929   21.825050 H          1 MOL1         0.0742
      16    C6      19.985513   17.893953   20.329442 C.3        1 MOL1        -0.1856
      17    H9      18.970283   18.302163   20.230024 H          1 MOL1         0.0742
      18    H10     20.034401   17.029550   19.652895 H          1 MOL1         0.0742
      19    C7      21.028826   18.930131   19.855245 C.3        1 MOL1        -0.2871
      20    H11     21.024085   19.830165   20.480400 H          1 MOL1         0.0754
      21    H12     20.821635   19.238360   18.822343 H          1 MOL1         0.0754
      22    H13     22.040600   18.505059   19.881949 H          1 MOL1         0.0754
@<TRIPOS>BOND
    1     1     2    1
    2     1     3    2
    3     1     4    1
    4     4     5    1
    5     4     6    1
    6     4     7    1
    7     7     8    1
    8     7     9    1
    9     7    10    1
   10    10    11    1
   11    10    12    1
   12    10    13    1
   13    13    14    1
   14    13    15    1
   15    13    16    1
   16    16    17    1
   17    16    18    1
   18    16    19    1
   19    19    20    1
   20    19    21    1
   21    19    22    1
@<TRIPOS>SUBSTRUCTURE
       1 MOL1            1 RESIDUE      1      MOL     
@<SCITEGIC>MOL_PROPERTY
VConf Rank
SciTegic.value.IntegerValue
518

@<SCITEGIC>MOL_PROPERTY
Conf_Id
SciTegic.value.IntegerValue
82

@<SCITEGIC>MOL_PROPERTY
Delta U+W
SciTegic.value.DoubleValue
3.438

@<SCITEGIC>MOL_PROPERTY
U+W
SciTegic.value.DoubleValue
-49.721

@<SCITEGIC>MOL_PROPERTY
Grad RMS
SciTegic.value.DoubleValue
0.000000

@<SCITEGIC>MOL_PROPERTY
U
SciTegic.value.DoubleValue
11.773

@<SCITEGIC>MOL_PROPERTY
W
SciTegic.value.DoubleValue
-61.495

@<SCITEGIC>MOL_PROPERTY
W(PB)
SciTegic.value.DoubleValue
-63.749

@<SCITEGIC>MOL_PROPERTY
W(SA)
SciTegic.value.DoubleValue
2.254

@<SCITEGIC>MOL_PROPERTY
Valence
SciTegic.value.DoubleValue
10.419

@<SCITEGIC>MOL_PROPERTY
Coulomb
SciTegic.value.DoubleValue
0.565

@<SCITEGIC>MOL_PROPERTY
VdW
SciTegic.value.DoubleValue
0.789

@<SCITEGIC>MOL_PROPERTY
VdW6
SciTegic.value.DoubleValue
-8.847

@<SCITEGIC>MOL_PROPERTY
VdW12
SciTegic.value.DoubleValue
9.636

@<SCITEGIC>MOL_PROPERTY
Bond
SciTegic.value.DoubleValue
0.200

@<SCITEGIC>MOL_PROPERTY
Angle
SciTegic.value.DoubleValue
3.187

@<SCITEGIC>MOL_PROPERTY
Pdih
SciTegic.value.DoubleValue
7.032

@<SCITEGIC>MOL_PROPERTY
Idih
SciTegic.value.DoubleValue
0.001

@<SCITEGIC>MOL_PROPERTY
Tether
SciTegic.value.DoubleValue
0.000

@<TRIPOS>MOLECULE
guest-s21_confgen4.mol2 : confsearch ligand conformer 519
          22          21           1
SMALL
USER_CHARGES
 
@<TRIPOS>ATOM
       1    C1      20.773108   22.125524   22.549813 C.2        1 MOL1         0.6145
       2    O1      19.913783   22.712954   23.177077 O.co2      1 MOL1        -0.6735
       3    O2      21.964291   22.283953   22.731261 O.co2      1 MOL1        -0.6735
       4    C2      20.330236   21.153680   21.459500 C.3        1 MOL1        -0.1985
       5    H1      21.173636   20.980246   20.780197 H          1 MOL1         0.0740
       6    H2      19.549068   21.653132   20.874421 H          1 MOL1         0.0740
       7    C3      19.789268   19.803103   21.997076 C.3        1 MOL1        -0.1882
       8    H3      18.976678   19.993692   22.711675 H          1 MOL1         0.0742
       9    H4      19.355618   19.245849   21.157242 H          1 MOL1         0.0742
      10    C4      20.888454   18.945725   22.666236 C.3        1 MOL1        -0.1880
      11    H5      21.396808   19.545561   23.433449 H          1 MOL1         0.0742
      12    H6      21.653980   18.688143   21.921710 H          1 MOL1         0.0742
      13    C5      20.365203   17.650600   23.336599 C.3        1 MOL1        -0.1880
      14    H7      21.221103   17.161352   23.821302 H          1 MOL1         0.0742
      15    H8      19.667383   17.901730   24.147098 H          1 MOL1         0.0742
      16    C6      19.715964   16.633398   22.365164 C.3        1 MOL1        -0.1856
      17    H9      19.973712   15.617939   22.696383 H          1 MOL1         0.0742
      18    H10     20.141329   16.743001   21.358057 H          1 MOL1         0.0742
      19    C7      18.175639   16.740697   22.311194 C.3        1 MOL1        -0.2871
      20    H11     17.737194   16.559521   23.301157 H          1 MOL1         0.0754
      21    H12     17.762902   15.994659   21.619896 H          1 MOL1         0.0754
      22    H13     17.846612   17.729423   21.971980 H          1 MOL1         0.0754
@<TRIPOS>BOND
    1     1     2    1
    2     1     3    2
    3     1     4    1
    4     4     5    1
    5     4     6    1
    6     4     7    1
    7     7     8    1
    8     7     9    1
    9     7    10    1
   10    10    11    1
   11    10    12    1
   12    10    13    1
   13    13    14    1
   14    13    15    1
   15    13    16    1
   16    16    17    1
   17    16    18    1
   18    16    19    1
   19    19    20    1
   20    19    21    1
   21    19    22    1
@<TRIPOS>SUBSTRUCTURE
       1 MOL1            1 RESIDUE      1      MOL     
@<SCITEGIC>MOL_PROPERTY
VConf Rank
SciTegic.value.IntegerValue
519

@<SCITEGIC>MOL_PROPERTY
Conf_Id
SciTegic.value.IntegerValue
94

@<SCITEGIC>MOL_PROPERTY
Delta U+W
SciTegic.value.DoubleValue
3.471

@<SCITEGIC>MOL_PROPERTY
U+W
SciTegic.value.DoubleValue
-49.688

@<SCITEGIC>MOL_PROPERTY
Grad RMS
SciTegic.value.DoubleValue
0.000000

@<SCITEGIC>MOL_PROPERTY
U
SciTegic.value.DoubleValue
11.773

@<SCITEGIC>MOL_PROPERTY
W
SciTegic.value.DoubleValue
-61.461

@<SCITEGIC>MOL_PROPERTY
W(PB)
SciTegic.value.DoubleValue
-63.710

@<SCITEGIC>MOL_PROPERTY
W(SA)
SciTegic.value.DoubleValue
2.248

@<SCITEGIC>MOL_PROPERTY
Valence
SciTegic.value.DoubleValue
10.419

@<SCITEGIC>MOL_PROPERTY
Coulomb
SciTegic.value.DoubleValue
0.566

@<SCITEGIC>MOL_PROPERTY
VdW
SciTegic.value.DoubleValue
0.789

@<SCITEGIC>MOL_PROPERTY
VdW6
SciTegic.value.DoubleValue
-8.847

@<SCITEGIC>MOL_PROPERTY
VdW12
SciTegic.value.DoubleValue
9.636

@<SCITEGIC>MOL_PROPERTY
Bond
SciTegic.value.DoubleValue
0.200

@<SCITEGIC>MOL_PROPERTY
Angle
SciTegic.value.DoubleValue
3.187

@<SCITEGIC>MOL_PROPERTY
Pdih
SciTegic.value.DoubleValue
7.032

@<SCITEGIC>MOL_PROPERTY
Idih
SciTegic.value.DoubleValue
0.001

@<SCITEGIC>MOL_PROPERTY
Tether
SciTegic.value.DoubleValue
0.000

@<TRIPOS>MOLECULE
guest-s21_confgen4.mol2 : confsearch ligand conformer 520
          22          21           1
SMALL
USER_CHARGES
 
@<TRIPOS>ATOM
       1    C1      22.155941   19.310380   24.717179 C.2        1 MOL1         0.6145
       2    O1      23.333472   19.606777   24.669552 O.co2      1 MOL1        -0.6735
       3    O2      21.683832   18.562428   25.550399 O.co2      1 MOL1        -0.6735
       4    C2      21.223585   19.894039   23.661723 C.3        1 MOL1        -0.1985
       5    H1      21.594385   20.890107   23.392300 H          1 MOL1         0.0740
       6    H2      20.238524   20.026817   24.123306 H          1 MOL1         0.0740
       7    C3      21.116143   19.003133   22.397130 C.3        1 MOL1        -0.1882
       8    H3      22.126805   18.821467   22.006415 H          1 MOL1         0.0742
       9    H4      20.716178   18.018647   22.673975 H          1 MOL1         0.0742
      10    C4      20.256411   19.629702   21.270770 C.3        1 MOL1        -0.1880
      11    H5      20.275129   18.964081   20.397803 H          1 MOL1         0.0742
      12    H6      20.730248   20.564438   20.941688 H          1 MOL1         0.0742
      13    C5      18.783260   19.930057   21.653889 C.3        1 MOL1        -0.1880
      14    H7      18.759650   20.718985   22.416966 H          1 MOL1         0.0742
      15    H8      18.272605   20.350697   20.777054 H          1 MOL1         0.0742
      16    C6      17.974088   18.712897   22.165445 C.3        1 MOL1        -0.1856
      17    H9      16.962352   19.050524   22.428705 H          1 MOL1         0.0742
      18    H10     18.416824   18.327482   23.093584 H          1 MOL1         0.0742
      19    C7      17.863844   17.574434   21.128356 C.3        1 MOL1        -0.2871
      20    H11     17.438135   17.941837   20.185626 H          1 MOL1         0.0754
      21    H12     17.214042   16.773703   21.504295 H          1 MOL1         0.0754
      22    H13     18.845708   17.133736   20.914616 H          1 MOL1         0.0754
@<TRIPOS>BOND
    1     1     2    1
    2     1     3    2
    3     1     4    1
    4     4     5    1
    5     4     6    1
    6     4     7    1
    7     7     8    1
    8     7     9    1
    9     7    10    1
   10    10    11    1
   11    10    12    1
   12    10    13    1
   13    13    14    1
   14    13    15    1
   15    13    16    1
   16    16    17    1
   17    16    18    1
   18    16    19    1
   19    19    20    1
   20    19    21    1
   21    19    22    1
@<TRIPOS>SUBSTRUCTURE
       1 MOL1            1 RESIDUE      1      MOL     
@<SCITEGIC>MOL_PROPERTY
VConf Rank
SciTegic.value.IntegerValue
520

@<SCITEGIC>MOL_PROPERTY
Conf_Id
SciTegic.value.IntegerValue
56

@<SCITEGIC>MOL_PROPERTY
Delta U+W
SciTegic.value.DoubleValue
0.853

@<SCITEGIC>MOL_PROPERTY
U+W
SciTegic.value.DoubleValue
-52.307

@<SCITEGIC>MOL_PROPERTY
Grad RMS
SciTegic.value.DoubleValue
0.000000

@<SCITEGIC>MOL_PROPERTY
U
SciTegic.value.DoubleValue
8.874

@<SCITEGIC>MOL_PROPERTY
W
SciTegic.value.DoubleValue
-61.181

@<SCITEGIC>MOL_PROPERTY
W(PB)
SciTegic.value.DoubleValue
-63.413

@<SCITEGIC>MOL_PROPERTY
W(SA)
SciTegic.value.DoubleValue
2.232

@<SCITEGIC>MOL_PROPERTY
Valence
SciTegic.value.DoubleValue
8.479

@<SCITEGIC>MOL_PROPERTY
Coulomb
SciTegic.value.DoubleValue
-0.357

@<SCITEGIC>MOL_PROPERTY
VdW
SciTegic.value.DoubleValue
0.753

@<SCITEGIC>MOL_PROPERTY
VdW6
SciTegic.value.DoubleValue
-9.081

@<SCITEGIC>MOL_PROPERTY
VdW12
SciTegic.value.DoubleValue
9.833

@<SCITEGIC>MOL_PROPERTY
Bond
SciTegic.value.DoubleValue
0.221

@<SCITEGIC>MOL_PROPERTY
Angle
SciTegic.value.DoubleValue
3.208

@<SCITEGIC>MOL_PROPERTY
Pdih
SciTegic.value.DoubleValue
5.050

@<SCITEGIC>MOL_PROPERTY
Idih
SciTegic.value.DoubleValue
0.000

@<SCITEGIC>MOL_PROPERTY
Tether
SciTegic.value.DoubleValue
0.000

@<TRIPOS>MOLECULE
guest-s21_confgen4.mol2 : confsearch ligand conformer 521
          22          21           1
SMALL
USER_CHARGES
 
@<TRIPOS>ATOM
       1    C1      18.128961   15.451118   21.008082 C.2        1 MOL1         0.6145
       2    O1      18.913062   15.296992   20.091658 O.co2      1 MOL1        -0.6735
       3    O2      17.239750   14.662618   21.260057 O.co2      1 MOL1        -0.6735
       4    C2      18.241355   16.686024   21.903571 C.3        1 MOL1        -0.1985
       5    H1      18.364487   16.332565   22.934044 H          1 MOL1         0.0740
       6    H2      17.280529   17.211994   21.857340 H          1 MOL1         0.0740
       7    C3      19.391944   17.663162   21.543356 C.3        1 MOL1        -0.1882
       8    H3      20.350949   17.128351   21.585499 H          1 MOL1         0.0742
       9    H4      19.265918   18.008728   20.507890 H          1 MOL1         0.0742
      10    C4      19.432521   18.878359   22.495282 C.3        1 MOL1        -0.1880
      11    H5      19.558555   18.530409   23.529775 H          1 MOL1         0.0742
      12    H6      18.472740   19.411309   22.451536 H          1 MOL1         0.0742
      13    C5      20.577654   19.849071   22.135148 C.3        1 MOL1        -0.1880
      14    H7      21.537675   19.316540   22.178701 H          1 MOL1         0.0742
      15    H8      20.452020   20.197327   21.100710 H          1 MOL1         0.0742
      16    C6      20.618833   21.063639   23.086059 C.3        1 MOL1        -0.1856
      17    H9      20.746496   20.719243   24.121708 H          1 MOL1         0.0742
      18    H10     19.660733   21.600041   23.043718 H          1 MOL1         0.0742
      19    C7      21.763649   22.030565   22.723035 C.3        1 MOL1        -0.2871
      20    H11     22.737649   21.528042   22.787860 H          1 MOL1         0.0754
      21    H12     21.778215   22.887689   23.408760 H          1 MOL1         0.0754
      22    H13     21.643715   22.415489   21.701831 H          1 MOL1         0.0754
@<TRIPOS>BOND
    1     1     2    1
    2     1     3    2
    3     1     4    1
    4     4     5    1
    5     4     6    1
    6     4     7    1
    7     7     8    1
    8     7     9    1
    9     7    10    1
   10    10    11    1
   11    10    12    1
   12    10    13    1
   13    13    14    1
   14    13    15    1
   15    13    16    1
   16    16    17    1
   17    16    18    1
   18    16    19    1
   19    19    20    1
   20    19    21    1
   21    19    22    1
@<TRIPOS>SUBSTRUCTURE
       1 MOL1            1 RESIDUE      1      MOL     
@<SCITEGIC>MOL_PROPERTY
VConf Rank
SciTegic.value.IntegerValue
521

@<SCITEGIC>MOL_PROPERTY
Conf_Id
SciTegic.value.IntegerValue
0

@<SCITEGIC>MOL_PROPERTY
Delta U+W
SciTegic.value.DoubleValue
0.000

@<SCITEGIC>MOL_PROPERTY
U+W
SciTegic.value.DoubleValue
-53.159

@<SCITEGIC>MOL_PROPERTY
Grad RMS
SciTegic.value.DoubleValue
0.000000

@<SCITEGIC>MOL_PROPERTY
U
SciTegic.value.DoubleValue
6.763

@<SCITEGIC>MOL_PROPERTY
W
SciTegic.value.DoubleValue
-59.922

@<SCITEGIC>MOL_PROPERTY
W(PB)
SciTegic.value.DoubleValue
-62.256

@<SCITEGIC>MOL_PROPERTY
W(SA)
SciTegic.value.DoubleValue
2.334

@<SCITEGIC>MOL_PROPERTY
Valence
SciTegic.value.DoubleValue
7.600

@<SCITEGIC>MOL_PROPERTY
Coulomb
SciTegic.value.DoubleValue
-2.139

@<SCITEGIC>MOL_PROPERTY
VdW
SciTegic.value.DoubleValue
1.302

@<SCITEGIC>MOL_PROPERTY
VdW6
SciTegic.value.DoubleValue
-6.786

@<SCITEGIC>MOL_PROPERTY
VdW12
SciTegic.value.DoubleValue
8.088

@<SCITEGIC>MOL_PROPERTY
Bond
SciTegic.value.DoubleValue
0.134

@<SCITEGIC>MOL_PROPERTY
Angle
SciTegic.value.DoubleValue
2.720

@<SCITEGIC>MOL_PROPERTY
Pdih
SciTegic.value.DoubleValue
4.746

@<SCITEGIC>MOL_PROPERTY
Idih
SciTegic.value.DoubleValue
0.000

@<SCITEGIC>MOL_PROPERTY
Tether
SciTegic.value.DoubleValue
0.000

@<TRIPOS>MOLECULE
guest-s21_confgen4.mol2 : confsearch ligand conformer 522
          22          21           1
SMALL
USER_CHARGES
 
@<TRIPOS>ATOM
       1    C1      20.589269   18.286184   26.050717 C.2        1 MOL1         0.6145
       2    O1      20.457864   17.126433   26.388566 O.co2      1 MOL1        -0.6735
       3    O2      20.365583   19.229934   26.782653 O.co2      1 MOL1        -0.6735
       4    C2      21.038153   18.573475   24.622368 C.3        1 MOL1        -0.1985
       5    H1      21.705718   17.763157   24.305500 H          1 MOL1         0.0740
       6    H2      21.629987   19.496692   24.630386 H          1 MOL1         0.0740
       7    C3      19.853054   18.706834   23.634539 C.3        1 MOL1        -0.1882
       8    H3      19.263295   17.779702   23.648043 H          1 MOL1         0.0742
       9    H4      19.187568   19.513185   23.972918 H          1 MOL1         0.0742
      10    C4      20.333478   18.997371   22.196255 C.3        1 MOL1        -0.1880
      11    H5      20.999420   18.190116   21.861539 H          1 MOL1         0.0742
      12    H6      20.923715   19.924030   22.186503 H          1 MOL1         0.0742
      13    C5      19.150008   19.129821   21.213836 C.3        1 MOL1        -0.1880
      14    H7      18.559509   18.203351   21.223304 H          1 MOL1         0.0742
      15    H8      18.483812   19.936978   21.548212 H          1 MOL1         0.0742
      16    C6      19.629355   19.420195   19.776136 C.3        1 MOL1        -0.1856
      17    H9      20.294526   18.613815   19.437349 H          1 MOL1         0.0742
      18    H10     20.218846   20.347440   19.762253 H          1 MOL1         0.0742
      19    C7      18.444612   19.551756   18.798171 C.3        1 MOL1        -0.2871
      20    H11     17.779002   20.372648   19.095672 H          1 MOL1         0.0754
      21    H12     17.855153   18.625979   18.768454 H          1 MOL1         0.0754
      22    H13     18.803352   19.757883   17.781358 H          1 MOL1         0.0754
@<TRIPOS>BOND
    1     1     2    1
    2     1     3    2
    3     1     4    1
    4     4     5    1
    5     4     6    1
    6     4     7    1
    7     7     8    1
    8     7     9    1
    9     7    10    1
   10    10    11    1
   11    10    12    1
   12    10    13    1
   13    13    14    1
   14    13    15    1
   15    13    16    1
   16    16    17    1
   17    16    18    1
   18    16    19    1
   19    19    20    1
   20    19    21    1
   21    19    22    1
@<TRIPOS>SUBSTRUCTURE
       1 MOL1            1 RESIDUE      1      MOL     
@<SCITEGIC>MOL_PROPERTY
VConf Rank
SciTegic.value.IntegerValue
522

@<SCITEGIC>MOL_PROPERTY
Conf_Id
SciTegic.value.IntegerValue
10

@<SCITEGIC>MOL_PROPERTY
Delta U+W
SciTegic.value.DoubleValue
-1.291

@<SCITEGIC>MOL_PROPERTY
U+W
SciTegic.value.DoubleValue
-54.451

@<SCITEGIC>MOL_PROPERTY
Grad RMS
SciTegic.value.DoubleValue
0.000000

@<SCITEGIC>MOL_PROPERTY
U
SciTegic.value.DoubleValue
5.779

@<SCITEGIC>MOL_PROPERTY
W
SciTegic.value.DoubleValue
-60.230

@<SCITEGIC>MOL_PROPERTY
W(PB)
SciTegic.value.DoubleValue
-62.557

@<SCITEGIC>MOL_PROPERTY
W(SA)
SciTegic.value.DoubleValue
2.328

@<SCITEGIC>MOL_PROPERTY
Valence
SciTegic.value.DoubleValue
7.101

@<SCITEGIC>MOL_PROPERTY
Coulomb
SciTegic.value.DoubleValue
-2.079

@<SCITEGIC>MOL_PROPERTY
VdW
SciTegic.value.DoubleValue
0.757

@<SCITEGIC>MOL_PROPERTY
VdW6
SciTegic.value.DoubleValue
-6.496

@<SCITEGIC>MOL_PROPERTY
VdW12
SciTegic.value.DoubleValue
7.253

@<SCITEGIC>MOL_PROPERTY
Bond
SciTegic.value.DoubleValue
0.100

@<SCITEGIC>MOL_PROPERTY
Angle
SciTegic.value.DoubleValue
2.262

@<SCITEGIC>MOL_PROPERTY
Pdih
SciTegic.value.DoubleValue
4.738

@<SCITEGIC>MOL_PROPERTY
Idih
SciTegic.value.DoubleValue
0.001

@<SCITEGIC>MOL_PROPERTY
Tether
SciTegic.value.DoubleValue
0.000

@<TRIPOS>MOLECULE
guest-s21_confgen4.mol2 : confsearch ligand conformer 523
          22          21           1
SMALL
USER_CHARGES
 
@<TRIPOS>ATOM
       1    C1      22.297265   21.520760   20.591237 C.2        1 MOL1         0.6145
       2    O1      23.346174   21.625887   21.195547 O.co2      1 MOL1        -0.6735
       3    O2      22.179053   21.748571   19.403556 O.co2      1 MOL1        -0.6735
       4    C2      21.065984   21.057091   21.361409 C.3        1 MOL1        -0.1985
       5    H1      20.184875   21.531845   20.913187 H          1 MOL1         0.0740
       6    H2      21.147059   21.429504   22.389705 H          1 MOL1         0.0740
       7    C3      20.901078   19.517300   21.362079 C.3        1 MOL1        -0.1882
       8    H3      20.834887   19.159339   20.325259 H          1 MOL1         0.0742
       9    H4      21.796330   19.056540   21.802278 H          1 MOL1         0.0742
      10    C4      19.648061   19.073661   22.147876 C.3        1 MOL1        -0.1880
      11    H5      18.754623   19.534032   21.704386 H          1 MOL1         0.0742
      12    H6      19.721111   19.442267   23.179360 H          1 MOL1         0.0742
      13    C5      19.489993   17.535716   22.148677 C.3        1 MOL1        -0.1880
      14    H7      19.489593   17.175917   21.110661 H          1 MOL1         0.0742
      15    H8      20.359012   17.074421   22.637500 H          1 MOL1         0.0742
      16    C6      18.192425   17.051391   22.836465 C.3        1 MOL1        -0.1856
      17    H9      18.099929   15.966360   22.690223 H          1 MOL1         0.0742
      18    H10     17.320515   17.505908   22.346059 H          1 MOL1         0.0742
      19    C7      18.153309   17.353795   24.350146 C.3        1 MOL1        -0.2871
      20    H11     17.257276   16.913462   24.806382 H          1 MOL1         0.0754
      21    H12     18.127075   18.433604   24.542571 H          1 MOL1         0.0754
      22    H13     19.031797   16.934274   24.857488 H          1 MOL1         0.0754
@<TRIPOS>BOND
    1     1     2    1
    2     1     3    2
    3     1     4    1
    4     4     5    1
    5     4     6    1
    6     4     7    1
    7     7     8    1
    8     7     9    1
    9     7    10    1
   10    10    11    1
   11    10    12    1
   12    10    13    1
   13    13    14    1
   14    13    15    1
   15    13    16    1
   16    16    17    1
   17    16    18    1
   18    16    19    1
   19    19    20    1
   20    19    21    1
   21    19    22    1
@<TRIPOS>SUBSTRUCTURE
       1 MOL1            1 RESIDUE      1      MOL     
@<SCITEGIC>MOL_PROPERTY
VConf Rank
SciTegic.value.IntegerValue
523

@<SCITEGIC>MOL_PROPERTY
Conf_Id
SciTegic.value.IntegerValue
37

@<SCITEGIC>MOL_PROPERTY
Delta U+W
SciTegic.value.DoubleValue
-0.345

@<SCITEGIC>MOL_PROPERTY
U+W
SciTegic.value.DoubleValue
-53.504

@<SCITEGIC>MOL_PROPERTY
Grad RMS
SciTegic.value.DoubleValue
0.000000

@<SCITEGIC>MOL_PROPERTY
U
SciTegic.value.DoubleValue
6.751

@<SCITEGIC>MOL_PROPERTY
W
SciTegic.value.DoubleValue
-60.255

@<SCITEGIC>MOL_PROPERTY
W(PB)
SciTegic.value.DoubleValue
-62.592

@<SCITEGIC>MOL_PROPERTY
W(SA)
SciTegic.value.DoubleValue
2.336

@<SCITEGIC>MOL_PROPERTY
Valence
SciTegic.value.DoubleValue
7.602

@<SCITEGIC>MOL_PROPERTY
Coulomb
SciTegic.value.DoubleValue
-1.744

@<SCITEGIC>MOL_PROPERTY
VdW
SciTegic.value.DoubleValue
0.894

@<SCITEGIC>MOL_PROPERTY
VdW6
SciTegic.value.DoubleValue
-7.110

@<SCITEGIC>MOL_PROPERTY
VdW12
SciTegic.value.DoubleValue
8.004

@<SCITEGIC>MOL_PROPERTY
Bond
SciTegic.value.DoubleValue
0.131

@<SCITEGIC>MOL_PROPERTY
Angle
SciTegic.value.DoubleValue
2.489

@<SCITEGIC>MOL_PROPERTY
Pdih
SciTegic.value.DoubleValue
4.982

@<SCITEGIC>MOL_PROPERTY
Idih
SciTegic.value.DoubleValue
0.001

@<SCITEGIC>MOL_PROPERTY
Tether
SciTegic.value.DoubleValue
0.000

@<TRIPOS>MOLECULE
guest-s21_confgen4.mol2 : confsearch ligand conformer 524
          22          21           1
SMALL
USER_CHARGES
 
@<TRIPOS>ATOM
       1    C1      20.233294   18.458277   26.038915 C.2        1 MOL1         0.6145
       2    O1      19.301958   17.856914   26.536336 O.co2      1 MOL1        -0.6735
       3    O2      20.935420   19.237813   26.651941 O.co2      1 MOL1        -0.6735
       4    C2      20.523471   18.238992   24.558401 C.3        1 MOL1        -0.1985
       5    H1      20.257631   17.204780   24.308621 H          1 MOL1         0.0740
       6    H2      21.604282   18.342235   24.404019 H          1 MOL1         0.0740
       7    C3      19.756310   19.224150   23.642385 C.3        1 MOL1        -0.1882
       8    H3      18.676798   19.117174   23.817761 H          1 MOL1         0.0742
       9    H4      20.023255   20.254811   23.914393 H          1 MOL1         0.0742
      10    C4      20.067153   18.981724   22.149416 C.3        1 MOL1        -0.1880
      11    H5      19.803764   17.947949   21.890375 H          1 MOL1         0.0742
      12    H6      21.146493   19.091495   21.976699 H          1 MOL1         0.0742
      13    C5      19.296000   19.965040   21.239100 C.3        1 MOL1        -0.1880
      14    H7      18.214836   19.822439   21.372087 H          1 MOL1         0.0742
      15    H8      19.515581   20.993477   21.556966 H          1 MOL1         0.0742
      16    C6      19.655323   19.826985   19.741389 C.3        1 MOL1        -0.1856
      17    H9      20.735270   19.975424   19.603588 H          1 MOL1         0.0742
      18    H10     19.157888   20.632620   19.183943 H          1 MOL1         0.0742
      19    C7      19.235830   18.470526   19.134548 C.3        1 MOL1        -0.2871
      20    H11     18.164388   18.286384   19.286995 H          1 MOL1         0.0754
      21    H12     19.795538   17.640452   19.583332 H          1 MOL1         0.0754
      22    H13     19.430744   18.456688   18.054392 H          1 MOL1         0.0754
@<TRIPOS>BOND
    1     1     2    1
    2     1     3    2
    3     1     4    1
    4     4     5    1
    5     4     6    1
    6     4     7    1
    7     7     8    1
    8     7     9    1
    9     7    10    1
   10    10    11    1
   11    10    12    1
   12    10    13    1
   13    13    14    1
   14    13    15    1
   15    13    16    1
   16    16    17    1
   17    16    18    1
   18    16    19    1
   19    19    20    1
   20    19    21    1
   21    19    22    1
@<TRIPOS>SUBSTRUCTURE
       1 MOL1            1 RESIDUE      1      MOL     
@<SCITEGIC>MOL_PROPERTY
VConf Rank
SciTegic.value.IntegerValue
524

@<SCITEGIC>MOL_PROPERTY
Conf_Id
SciTegic.value.IntegerValue
38

@<SCITEGIC>MOL_PROPERTY
Delta U+W
SciTegic.value.DoubleValue
-0.439

@<SCITEGIC>MOL_PROPERTY
U+W
SciTegic.value.DoubleValue
-53.598

@<SCITEGIC>MOL_PROPERTY
Grad RMS
SciTegic.value.DoubleValue
0.000000

@<SCITEGIC>MOL_PROPERTY
U
SciTegic.value.DoubleValue
6.751

@<SCITEGIC>MOL_PROPERTY
W
SciTegic.value.DoubleValue
-60.350

@<SCITEGIC>MOL_PROPERTY
W(PB)
SciTegic.value.DoubleValue
-62.659

@<SCITEGIC>MOL_PROPERTY
W(SA)
SciTegic.value.DoubleValue
2.309

@<SCITEGIC>MOL_PROPERTY
Valence
SciTegic.value.DoubleValue
7.602

@<SCITEGIC>MOL_PROPERTY
Coulomb
SciTegic.value.DoubleValue
-1.744

@<SCITEGIC>MOL_PROPERTY
VdW
SciTegic.value.DoubleValue
0.893

@<SCITEGIC>MOL_PROPERTY
VdW6
SciTegic.value.DoubleValue
-7.110

@<SCITEGIC>MOL_PROPERTY
VdW12
SciTegic.value.DoubleValue
8.004

@<SCITEGIC>MOL_PROPERTY
Bond
SciTegic.value.DoubleValue
0.131

@<SCITEGIC>MOL_PROPERTY
Angle
SciTegic.value.DoubleValue
2.489

@<SCITEGIC>MOL_PROPERTY
Pdih
SciTegic.value.DoubleValue
4.981

@<SCITEGIC>MOL_PROPERTY
Idih
SciTegic.value.DoubleValue
0.001

@<SCITEGIC>MOL_PROPERTY
Tether
SciTegic.value.DoubleValue
0.000

@<TRIPOS>MOLECULE
guest-s21_confgen4.mol2 : confsearch ligand conformer 525
          22          21           1
SMALL
USER_CHARGES
 
@<TRIPOS>ATOM
       1    C1      18.871836   15.465747   23.015036 C.2        1 MOL1         0.6145
       2    O1      17.723291   15.115211   23.200857 O.co2      1 MOL1        -0.6735
       3    O2      19.837687   14.838039   23.401878 O.co2      1 MOL1        -0.6735
       4    C2      19.113775   16.776829   22.275563 C.3        1 MOL1        -0.1985
       5    H1      18.300931   16.914325   21.552516 H          1 MOL1         0.0740
       6    H2      20.042836   16.669922   21.704707 H          1 MOL1         0.0740
       7    C3      19.193476   17.997222   23.229449 C.3        1 MOL1        -0.1882
       8    H3      18.288769   18.014965   23.852857 H          1 MOL1         0.0742
       9    H4      20.041061   17.871522   23.917267 H          1 MOL1         0.0742
      10    C4      19.313186   19.353506   22.494001 C.3        1 MOL1        -0.1880
      11    H5      19.218950   20.153248   23.239562 H          1 MOL1         0.0742
      12    H6      18.469014   19.472186   21.801212 H          1 MOL1         0.0742
      13    C5      20.647346   19.521289   21.725960 C.3        1 MOL1        -0.1880
      14    H7      21.491447   19.400805   22.418549 H          1 MOL1         0.0742
      15    H8      20.741497   18.723968   20.977967 H          1 MOL1         0.0742
      16    C6      20.768380   20.878763   20.994706 C.3        1 MOL1        -0.1856
      17    H9      19.919488   21.008250   20.309207 H          1 MOL1         0.0742
      18    H10     21.671693   20.861544   20.369427 H          1 MOL1         0.0742
      19    C7      20.853015   22.087136   21.952478 C.3        1 MOL1        -0.2871
      20    H11     19.920641   22.220144   22.514982 H          1 MOL1         0.0754
      21    H12     21.034288   23.011254   21.388506 H          1 MOL1         0.0754
      22    H13     21.674352   21.962961   22.670190 H          1 MOL1         0.0754
@<TRIPOS>BOND
    1     1     2    1
    2     1     3    2
    3     1     4    1
    4     4     5    1
    5     4     6    1
    6     4     7    1
    7     7     8    1
    8     7     9    1
    9     7    10    1
   10    10    11    1
   11    10    12    1
   12    10    13    1
   13    13    14    1
   14    13    15    1
   15    13    16    1
   16    16    17    1
   17    16    18    1
   18    16    19    1
   19    19    20    1
   20    19    21    1
   21    19    22    1
@<TRIPOS>SUBSTRUCTURE
       1 MOL1            1 RESIDUE      1      MOL     
@<SCITEGIC>MOL_PROPERTY
VConf Rank
SciTegic.value.IntegerValue
525

@<SCITEGIC>MOL_PROPERTY
Conf_Id
SciTegic.value.IntegerValue
60

@<SCITEGIC>MOL_PROPERTY
Delta U+W
SciTegic.value.DoubleValue
0.386

@<SCITEGIC>MOL_PROPERTY
U+W
SciTegic.value.DoubleValue
-52.773

@<SCITEGIC>MOL_PROPERTY
Grad RMS
SciTegic.value.DoubleValue
0.000000

@<SCITEGIC>MOL_PROPERTY
U
SciTegic.value.DoubleValue
7.689

@<SCITEGIC>MOL_PROPERTY
W
SciTegic.value.DoubleValue
-60.463

@<SCITEGIC>MOL_PROPERTY
W(PB)
SciTegic.value.DoubleValue
-62.772

@<SCITEGIC>MOL_PROPERTY
W(SA)
SciTegic.value.DoubleValue
2.309

@<SCITEGIC>MOL_PROPERTY
Valence
SciTegic.value.DoubleValue
8.197

@<SCITEGIC>MOL_PROPERTY
Coulomb
SciTegic.value.DoubleValue
-1.561

@<SCITEGIC>MOL_PROPERTY
VdW
SciTegic.value.DoubleValue
1.053

@<SCITEGIC>MOL_PROPERTY
VdW6
SciTegic.value.DoubleValue
-7.737

@<SCITEGIC>MOL_PROPERTY
VdW12
SciTegic.value.DoubleValue
8.790

@<SCITEGIC>MOL_PROPERTY
Bond
SciTegic.value.DoubleValue
0.181

@<SCITEGIC>MOL_PROPERTY
Angle
SciTegic.value.DoubleValue
2.780

@<SCITEGIC>MOL_PROPERTY
Pdih
SciTegic.value.DoubleValue
5.235

@<SCITEGIC>MOL_PROPERTY
Idih
SciTegic.value.DoubleValue
0.001

@<SCITEGIC>MOL_PROPERTY
Tether
SciTegic.value.DoubleValue
0.000

@<TRIPOS>MOLECULE
guest-s21_confgen4.mol2 : confsearch ligand conformer 526
          22          21           1
SMALL
USER_CHARGES
 
@<TRIPOS>ATOM
       1    C1      19.077539   15.967370   24.421640 C.2        1 MOL1         0.6145
       2    O1      18.792563   16.340235   25.542485 O.co2      1 MOL1        -0.6735
       3    O2      19.412323   14.829893   24.155881 O.co2      1 MOL1        -0.6735
       4    C2      19.034605   16.988231   23.290142 C.3        1 MOL1        -0.1985
       5    H1      18.230038   17.697788   23.512992 H          1 MOL1         0.0740
       6    H2      18.759344   16.462386   22.368115 H          1 MOL1         0.0740
       7    C3      20.383382   17.730189   23.100636 C.3        1 MOL1        -0.1882
       8    H3      20.624807   18.292901   24.012975 H          1 MOL1         0.0742
       9    H4      21.180200   16.983658   22.977273 H          1 MOL1         0.0742
      10    C4      20.403306   18.680245   21.879277 C.3        1 MOL1        -0.1880
      11    H5      20.153563   18.116283   20.970298 H          1 MOL1         0.0742
      12    H6      21.430737   19.042941   21.748265 H          1 MOL1         0.0742
      13    C5      19.446032   19.888816   22.024192 C.3        1 MOL1        -0.1880
      14    H7      18.417803   19.527624   22.152114 H          1 MOL1         0.0742
      15    H8      19.694677   20.451600   22.934222 H          1 MOL1         0.0742
      16    C6      19.469667   20.840473   20.805216 C.3        1 MOL1        -0.1856
      17    H9      18.671854   21.586178   20.926309 H          1 MOL1         0.0742
      18    H10     19.232674   20.278868   19.891035 H          1 MOL1         0.0742
      19    C7      20.814194   21.579168   20.628491 C.3        1 MOL1        -0.2871
      20    H11     21.088576   22.120181   21.543446 H          1 MOL1         0.0754
      21    H12     20.745754   22.309635   19.812003 H          1 MOL1         0.0754
      22    H13     21.625815   20.883218   20.382830 H          1 MOL1         0.0754
@<TRIPOS>BOND
    1     1     2    1
    2     1     3    2
    3     1     4    1
    4     4     5    1
    5     4     6    1
    6     4     7    1
    7     7     8    1
    8     7     9    1
    9     7    10    1
   10    10    11    1
   11    10    12    1
   12    10    13    1
   13    13    14    1
   14    13    15    1
   15    13    16    1
   16    16    17    1
   17    16    18    1
   18    16    19    1
   19    19    20    1
   20    19    21    1
   21    19    22    1
@<TRIPOS>SUBSTRUCTURE
       1 MOL1            1 RESIDUE      1      MOL     
@<SCITEGIC>MOL_PROPERTY
VConf Rank
SciTegic.value.IntegerValue
526

@<SCITEGIC>MOL_PROPERTY
Conf_Id
SciTegic.value.IntegerValue
28

@<SCITEGIC>MOL_PROPERTY
Delta U+W
SciTegic.value.DoubleValue
0.351

@<SCITEGIC>MOL_PROPERTY
U+W
SciTegic.value.DoubleValue
-52.808

@<SCITEGIC>MOL_PROPERTY
Grad RMS
SciTegic.value.DoubleValue
0.000000

@<SCITEGIC>MOL_PROPERTY
U
SciTegic.value.DoubleValue
7.689

@<SCITEGIC>MOL_PROPERTY
W
SciTegic.value.DoubleValue
-60.498

@<SCITEGIC>MOL_PROPERTY
W(PB)
SciTegic.value.DoubleValue
-62.768

@<SCITEGIC>MOL_PROPERTY
W(SA)
SciTegic.value.DoubleValue
2.270

@<SCITEGIC>MOL_PROPERTY
Valence
SciTegic.value.DoubleValue
8.197

@<SCITEGIC>MOL_PROPERTY
Coulomb
SciTegic.value.DoubleValue
-1.561

@<SCITEGIC>MOL_PROPERTY
VdW
SciTegic.value.DoubleValue
1.053

@<SCITEGIC>MOL_PROPERTY
VdW6
SciTegic.value.DoubleValue
-7.737

@<SCITEGIC>MOL_PROPERTY
VdW12
SciTegic.value.DoubleValue
8.791

@<SCITEGIC>MOL_PROPERTY
Bond
SciTegic.value.DoubleValue
0.181

@<SCITEGIC>MOL_PROPERTY
Angle
SciTegic.value.DoubleValue
2.780

@<SCITEGIC>MOL_PROPERTY
Pdih
SciTegic.value.DoubleValue
5.235

@<SCITEGIC>MOL_PROPERTY
Idih
SciTegic.value.DoubleValue
0.001

@<SCITEGIC>MOL_PROPERTY
Tether
SciTegic.value.DoubleValue
0.000

@<TRIPOS>MOLECULE
guest-s21_confgen4.mol2 : confsearch ligand conformer 527
          22          21           1
SMALL
USER_CHARGES
 
@<TRIPOS>ATOM
       1    C1      22.756809   16.786619   23.463806 C.2        1 MOL1         0.6145
       2    O1      23.626245   16.526082   22.655924 O.co2      1 MOL1        -0.6735
       3    O2      22.980757   17.096002   24.617315 O.co2      1 MOL1        -0.6735
       4    C2      21.305484   16.742220   22.999042 C.3        1 MOL1        -0.1985
       5    H1      20.684744   16.434000   23.848944 H          1 MOL1         0.0740
       6    H2      21.216977   15.962450   22.233050 H          1 MOL1         0.0740
       7    C3      20.810740   18.099453   22.440981 C.3        1 MOL1        -0.1882
       8    H3      20.928059   18.866202   23.218027 H          1 MOL1         0.0742
       9    H4      21.447544   18.398292   21.596895 H          1 MOL1         0.0742
      10    C4      19.335925   18.027170   21.981899 C.3        1 MOL1        -0.1880
      11    H5      18.692860   17.779954   22.837668 H          1 MOL1         0.0742
      12    H6      19.226030   17.204143   21.262515 H          1 MOL1         0.0742
      13    C5      18.833227   19.329960   21.315870 C.3        1 MOL1        -0.1880
      14    H7      19.473584   19.575347   20.457581 H          1 MOL1         0.0742
      15    H8      17.828056   19.148492   20.911358 H          1 MOL1         0.0742
      16    C6      18.774422   20.533896   22.283015 C.3        1 MOL1        -0.1856
      17    H9      19.782569   20.782618   22.639574 H          1 MOL1         0.0742
      18    H10     18.177225   20.270529   23.166870 H          1 MOL1         0.0742
      19    C7      18.162841   21.775576   21.603372 C.3        1 MOL1        -0.2871
      20    H11     17.137078   21.574910   21.267364 H          1 MOL1         0.0754
      21    H12     18.756729   22.077763   20.730809 H          1 MOL1         0.0754
      22    H13     18.130993   22.622215   22.301410 H          1 MOL1         0.0754
@<TRIPOS>BOND
    1     1     2    1
    2     1     3    2
    3     1     4    1
    4     4     5    1
    5     4     6    1
    6     4     7    1
    7     7     8    1
    8     7     9    1
    9     7    10    1
   10    10    11    1
   11    10    12    1
   12    10    13    1
   13    13    14    1
   14    13    15    1
   15    13    16    1
   16    16    17    1
   17    16    18    1
   18    16    19    1
   19    19    20    1
   20    19    21    1
   21    19    22    1
@<TRIPOS>SUBSTRUCTURE
       1 MOL1            1 RESIDUE      1      MOL     
@<SCITEGIC>MOL_PROPERTY
VConf Rank
SciTegic.value.IntegerValue
527

@<SCITEGIC>MOL_PROPERTY
Conf_Id
SciTegic.value.IntegerValue
50

@<SCITEGIC>MOL_PROPERTY
Delta U+W
SciTegic.value.DoubleValue
-0.486

@<SCITEGIC>MOL_PROPERTY
U+W
SciTegic.value.DoubleValue
-53.646

@<SCITEGIC>MOL_PROPERTY
Grad RMS
SciTegic.value.DoubleValue
0.000000

@<SCITEGIC>MOL_PROPERTY
U
SciTegic.value.DoubleValue
7.026

@<SCITEGIC>MOL_PROPERTY
W
SciTegic.value.DoubleValue
-60.672

@<SCITEGIC>MOL_PROPERTY
W(PB)
SciTegic.value.DoubleValue
-62.964

@<SCITEGIC>MOL_PROPERTY
W(SA)
SciTegic.value.DoubleValue
2.292

@<SCITEGIC>MOL_PROPERTY
Valence
SciTegic.value.DoubleValue
7.637

@<SCITEGIC>MOL_PROPERTY
Coulomb
SciTegic.value.DoubleValue
-1.488

@<SCITEGIC>MOL_PROPERTY
VdW
SciTegic.value.DoubleValue
0.877

@<SCITEGIC>MOL_PROPERTY
VdW6
SciTegic.value.DoubleValue
-7.165

@<SCITEGIC>MOL_PROPERTY
VdW12
SciTegic.value.DoubleValue
8.043

@<SCITEGIC>MOL_PROPERTY
Bond
SciTegic.value.DoubleValue
0.134

@<SCITEGIC>MOL_PROPERTY
Angle
SciTegic.value.DoubleValue
2.513

@<SCITEGIC>MOL_PROPERTY
Pdih
SciTegic.value.DoubleValue
4.990

@<SCITEGIC>MOL_PROPERTY
Idih
SciTegic.value.DoubleValue
0.001

@<SCITEGIC>MOL_PROPERTY
Tether
SciTegic.value.DoubleValue
0.000

@<TRIPOS>MOLECULE
guest-s21_confgen4.mol2 : confsearch ligand conformer 528
          22          21           1
SMALL
USER_CHARGES
 
@<TRIPOS>ATOM
       1    C1      19.447550   15.935886   24.350938 C.2        1 MOL1         0.6145
       2    O1      18.846421   16.040052   25.401777 O.co2      1 MOL1        -0.6735
       3    O2      20.480756   15.308742   24.225919 O.co2      1 MOL1        -0.6735
       4    C2      18.885126   16.648478   23.126103 C.3        1 MOL1        -0.1985
       5    H1      17.791630   16.655837   23.208727 H          1 MOL1         0.0740
       6    H2      19.139476   16.054877   22.239766 H          1 MOL1         0.0740
       7    C3      19.420106   18.093630   22.972373 C.3        1 MOL1        -0.1882
       8    H3      19.165402   18.672131   23.871131 H          1 MOL1         0.0742
       9    H4      20.515906   18.061432   22.911938 H          1 MOL1         0.0742
      10    C4      18.837528   18.790452   21.720930 C.3        1 MOL1        -0.1880
      11    H5      17.740773   18.743621   21.764484 H          1 MOL1         0.0742
      12    H6      19.136476   18.241124   20.817682 H          1 MOL1         0.0742
      13    C5      19.259366   20.273049   21.588565 C.3        1 MOL1        -0.1880
      14    H7      18.704779   20.719204   20.751722 H          1 MOL1         0.0742
      15    H8      18.957077   20.823610   22.489918 H          1 MOL1         0.0742
      16    C6      20.773453   20.463887   21.344824 C.3        1 MOL1        -0.1856
      17    H9      21.086373   19.871094   20.474259 H          1 MOL1         0.0742
      18    H10     21.345056   20.094773   22.206442 H          1 MOL1         0.0742
      19    C7      21.125420   21.946366   21.107986 C.3        1 MOL1        -0.2871
      20    H11     20.847761   22.559039   21.975698 H          1 MOL1         0.0754
      21    H12     20.599805   22.339711   20.228006 H          1 MOL1         0.0754
      22    H13     22.203627   22.065761   20.939809 H          1 MOL1         0.0754
@<TRIPOS>BOND
    1     1     2    1
    2     1     3    2
    3     1     4    1
    4     4     5    1
    5     4     6    1
    6     4     7    1
    7     7     8    1
    8     7     9    1
    9     7    10    1
   10    10    11    1
   11    10    12    1
   12    10    13    1
   13    13    14    1
   14    13    15    1
   15    13    16    1
   16    16    17    1
   17    16    18    1
   18    16    19    1
   19    19    20    1
   20    19    21    1
   21    19    22    1
@<TRIPOS>SUBSTRUCTURE
       1 MOL1            1 RESIDUE      1      MOL     
@<SCITEGIC>MOL_PROPERTY
VConf Rank
SciTegic.value.IntegerValue
528

@<SCITEGIC>MOL_PROPERTY
Conf_Id
SciTegic.value.IntegerValue
51

@<SCITEGIC>MOL_PROPERTY
Delta U+W
SciTegic.value.DoubleValue
-0.517

@<SCITEGIC>MOL_PROPERTY
U+W
SciTegic.value.DoubleValue
-53.677

@<SCITEGIC>MOL_PROPERTY
Grad RMS
SciTegic.value.DoubleValue
0.000000

@<SCITEGIC>MOL_PROPERTY
U
SciTegic.value.DoubleValue
7.026

@<SCITEGIC>MOL_PROPERTY
W
SciTegic.value.DoubleValue
-60.703

@<SCITEGIC>MOL_PROPERTY
W(PB)
SciTegic.value.DoubleValue
-63.007

@<SCITEGIC>MOL_PROPERTY
W(SA)
SciTegic.value.DoubleValue
2.304

@<SCITEGIC>MOL_PROPERTY
Valence
SciTegic.value.DoubleValue
7.638

@<SCITEGIC>MOL_PROPERTY
Coulomb
SciTegic.value.DoubleValue
-1.488

@<SCITEGIC>MOL_PROPERTY
VdW
SciTegic.value.DoubleValue
0.877

@<SCITEGIC>MOL_PROPERTY
VdW6
SciTegic.value.DoubleValue
-7.165

@<SCITEGIC>MOL_PROPERTY
VdW12
SciTegic.value.DoubleValue
8.042

@<SCITEGIC>MOL_PROPERTY
Bond
SciTegic.value.DoubleValue
0.134

@<SCITEGIC>MOL_PROPERTY
Angle
SciTegic.value.DoubleValue
2.513

@<SCITEGIC>MOL_PROPERTY
Pdih
SciTegic.value.DoubleValue
4.990

@<SCITEGIC>MOL_PROPERTY
Idih
SciTegic.value.DoubleValue
0.001

@<SCITEGIC>MOL_PROPERTY
Tether
SciTegic.value.DoubleValue
0.000

@<TRIPOS>MOLECULE
guest-s21_confgen4.mol2 : confsearch ligand conformer 529
          22          21           1
SMALL
USER_CHARGES
 
@<TRIPOS>ATOM
       1    C1      20.657909   22.203798   21.683183 C.2        1 MOL1         0.6145
       2    O1      19.724036   22.941645   21.928876 O.co2      1 MOL1        -0.6735
       3    O2      21.738098   22.279923   22.234715 O.co2      1 MOL1        -0.6735
       4    C2      20.467432   21.136121   20.609443 C.3        1 MOL1        -0.1985
       5    H1      21.454941   20.802025   20.268691 H          1 MOL1         0.0740
       6    H2      19.981590   21.616437   19.751950 H          1 MOL1         0.0740
       7    C3      19.620920   19.921432   21.070898 C.3        1 MOL1        -0.1882
       8    H3      18.646153   20.274544   21.435307 H          1 MOL1         0.0742
       9    H4      19.419966   19.277206   20.204218 H          1 MOL1         0.0742
      10    C4      20.321611   19.092177   22.170423 C.3        1 MOL1        -0.1880
      11    H5      20.510699   19.725862   23.047975 H          1 MOL1         0.0742
      12    H6      21.300890   18.752720   21.806007 H          1 MOL1         0.0742
      13    C5      19.475928   17.871311   22.592036 C.3        1 MOL1        -0.1880
      14    H7      18.496849   18.211585   22.956353 H          1 MOL1         0.0742
      15    H8      19.287900   17.234529   21.716701 H          1 MOL1         0.0742
      16    C6      20.174685   17.043115   23.690616 C.3        1 MOL1        -0.1856
      17    H9      20.362800   17.676480   24.568661 H          1 MOL1         0.0742
      18    H10     21.153851   16.699547   23.329149 H          1 MOL1         0.0742
      19    C7      19.326980   15.825222   24.109525 C.3        1 MOL1        -0.2871
      20    H11     18.352964   16.141967   24.504957 H          1 MOL1         0.0754
      21    H12     19.838511   15.248133   24.890799 H          1 MOL1         0.0754
      22    H13     19.149917   15.157648   23.256067 H          1 MOL1         0.0754
@<TRIPOS>BOND
    1     1     2    1
    2     1     3    2
    3     1     4    1
    4     4     5    1
    5     4     6    1
    6     4     7    1
    7     7     8    1
    8     7     9    1
    9     7    10    1
   10    10    11    1
   11    10    12    1
   12    10    13    1
   13    13    14    1
   14    13    15    1
   15    13    16    1
   16    16    17    1
   17    16    18    1
   18    16    19    1
   19    19    20    1
   20    19    21    1
   21    19    22    1
@<TRIPOS>SUBSTRUCTURE
       1 MOL1            1 RESIDUE      1      MOL     
@<SCITEGIC>MOL_PROPERTY
VConf Rank
SciTegic.value.IntegerValue
529

@<SCITEGIC>MOL_PROPERTY
Conf_Id
SciTegic.value.IntegerValue
43

@<SCITEGIC>MOL_PROPERTY
Delta U+W
SciTegic.value.DoubleValue
-0.129

@<SCITEGIC>MOL_PROPERTY
U+W
SciTegic.value.DoubleValue
-53.289

@<SCITEGIC>MOL_PROPERTY
Grad RMS
SciTegic.value.DoubleValue
0.000000

@<SCITEGIC>MOL_PROPERTY
U
SciTegic.value.DoubleValue
7.937

@<SCITEGIC>MOL_PROPERTY
W
SciTegic.value.DoubleValue
-61.225

@<SCITEGIC>MOL_PROPERTY
W(PB)
SciTegic.value.DoubleValue
-63.523

@<SCITEGIC>MOL_PROPERTY
W(SA)
SciTegic.value.DoubleValue
2.297

@<SCITEGIC>MOL_PROPERTY
Valence
SciTegic.value.DoubleValue
7.358

@<SCITEGIC>MOL_PROPERTY
Coulomb
SciTegic.value.DoubleValue
-0.022

@<SCITEGIC>MOL_PROPERTY
VdW
SciTegic.value.DoubleValue
0.601

@<SCITEGIC>MOL_PROPERTY
VdW6
SciTegic.value.DoubleValue
-7.363

@<SCITEGIC>MOL_PROPERTY
VdW12
SciTegic.value.DoubleValue
7.964

@<SCITEGIC>MOL_PROPERTY
Bond
SciTegic.value.DoubleValue
0.121

@<SCITEGIC>MOL_PROPERTY
Angle
SciTegic.value.DoubleValue
2.425

@<SCITEGIC>MOL_PROPERTY
Pdih
SciTegic.value.DoubleValue
4.811

@<SCITEGIC>MOL_PROPERTY
Idih
SciTegic.value.DoubleValue
0.000

@<SCITEGIC>MOL_PROPERTY
Tether
SciTegic.value.DoubleValue
0.000

@<TRIPOS>MOLECULE
guest-s21_confgen4.mol2 : confsearch ligand conformer 530
          22          21           1
SMALL
USER_CHARGES
 
@<TRIPOS>ATOM
       1    C1      21.816940   16.427434   21.615525 C.2        1 MOL1         0.6145
       2    O1      22.989474   16.746059   21.592161 O.co2      1 MOL1        -0.6735
       3    O2      21.221620   15.983260   20.653706 O.co2      1 MOL1        -0.6735
       4    C2      21.057362   16.576964   22.930748 C.3        1 MOL1        -0.1985
       5    H1      21.693508   16.168940   23.725024 H          1 MOL1         0.0740
       6    H2      20.158947   15.949219   22.889634 H          1 MOL1         0.0740
       7    C3      20.673422   18.039599   23.274678 C.3        1 MOL1        -0.1882
       8    H3      20.258551   18.069521   24.291304 H          1 MOL1         0.0742
       9    H4      21.579702   18.661059   23.284480 H          1 MOL1         0.0742
      10    C4      19.643493   18.631652   22.286594 C.3        1 MOL1        -0.1880
      11    H5      18.744934   17.999708   22.270724 H          1 MOL1         0.0742
      12    H6      20.058215   18.620934   21.269098 H          1 MOL1         0.0742
      13    C5      19.252309   20.076169   22.665809 C.3        1 MOL1        -0.1880
      14    H7      18.834639   20.089104   23.681901 H          1 MOL1         0.0742
      15    H8      20.151371   20.707480   22.681416 H          1 MOL1         0.0742
      16    C6      18.224367   20.668370   21.679055 C.3        1 MOL1        -0.1856
      17    H9      17.322845   20.040334   21.661978 H          1 MOL1         0.0742
      18    H10     18.639473   20.658723   20.661658 H          1 MOL1         0.0742
      19    C7      17.836610   22.111097   22.060552 C.3        1 MOL1        -0.2871
      20    H11     17.389237   22.145664   23.062579 H          1 MOL1         0.0754
      21    H12     17.105584   22.516261   21.348844 H          1 MOL1         0.0754
      22    H13     18.715784   22.768684   22.054677 H          1 MOL1         0.0754
@<TRIPOS>BOND
    1     1     2    1
    2     1     3    2
    3     1     4    1
    4     4     5    1
    5     4     6    1
    6     4     7    1
    7     7     8    1
    8     7     9    1
    9     7    10    1
   10    10    11    1
   11    10    12    1
   12    10    13    1
   13    13    14    1
   14    13    15    1
   15    13    16    1
   16    16    17    1
   17    16    18    1
   18    16    19    1
   19    19    20    1
   20    19    21    1
   21    19    22    1
@<TRIPOS>SUBSTRUCTURE
       1 MOL1            1 RESIDUE      1      MOL     
@<SCITEGIC>MOL_PROPERTY
VConf Rank
SciTegic.value.IntegerValue
530

@<SCITEGIC>MOL_PROPERTY
Conf_Id
SciTegic.value.IntegerValue
44

@<SCITEGIC>MOL_PROPERTY
Delta U+W
SciTegic.value.DoubleValue
-0.155

@<SCITEGIC>MOL_PROPERTY
U+W
SciTegic.value.DoubleValue
-53.314

@<SCITEGIC>MOL_PROPERTY
Grad RMS
SciTegic.value.DoubleValue
0.000000

@<SCITEGIC>MOL_PROPERTY
U
SciTegic.value.DoubleValue
7.937

@<SCITEGIC>MOL_PROPERTY
W
SciTegic.value.DoubleValue
-61.252

@<SCITEGIC>MOL_PROPERTY
W(PB)
SciTegic.value.DoubleValue
-63.556

@<SCITEGIC>MOL_PROPERTY
W(SA)
SciTegic.value.DoubleValue
2.304

@<SCITEGIC>MOL_PROPERTY
Valence
SciTegic.value.DoubleValue
7.358

@<SCITEGIC>MOL_PROPERTY
Coulomb
SciTegic.value.DoubleValue
-0.021

@<SCITEGIC>MOL_PROPERTY
VdW
SciTegic.value.DoubleValue
0.600

@<SCITEGIC>MOL_PROPERTY
VdW6
SciTegic.value.DoubleValue
-7.363

@<SCITEGIC>MOL_PROPERTY
VdW12
SciTegic.value.DoubleValue
7.964

@<SCITEGIC>MOL_PROPERTY
Bond
SciTegic.value.DoubleValue
0.121

@<SCITEGIC>MOL_PROPERTY
Angle
SciTegic.value.DoubleValue
2.425

@<SCITEGIC>MOL_PROPERTY
Pdih
SciTegic.value.DoubleValue
4.811

@<SCITEGIC>MOL_PROPERTY
Idih
SciTegic.value.DoubleValue
0.001

@<SCITEGIC>MOL_PROPERTY
Tether
SciTegic.value.DoubleValue
0.000

@<TRIPOS>MOLECULE
guest-s21_confgen4.mol2 : confsearch ligand conformer 531
          22          21           1
SMALL
USER_CHARGES
 
@<TRIPOS>ATOM
       1    C1      16.328495   18.682717   21.453885 C.2        1 MOL1         0.6145
       2    O1      15.606520   19.138568   22.318683 O.co2      1 MOL1        -0.6735
       3    O2      16.183338   17.577027   20.970931 O.co2      1 MOL1        -0.6735
       4    C2      17.467359   19.555586   20.933885 C.3        1 MOL1        -0.1985
       5    H1      17.056249   20.555689   20.752739 H          1 MOL1         0.0740
       6    H2      17.792585   19.165327   19.961869 H          1 MOL1         0.0740
       7    C3      18.676051   19.660406   21.900167 C.3        1 MOL1        -0.1882
       8    H3      19.364417   20.422704   21.513879 H          1 MOL1         0.0742
       9    H4      18.328300   20.013946   22.880718 H          1 MOL1         0.0742
      10    C4      19.424868   18.315735   22.062474 C.3        1 MOL1        -0.1880
      11    H5      19.808322   17.984918   21.087628 H          1 MOL1         0.0742
      12    H6      18.714655   17.545313   22.392683 H          1 MOL1         0.0742
      13    C5      20.585966   18.375715   23.083296 C.3        1 MOL1        -0.1880
      14    H7      20.202084   18.706789   24.057946 H          1 MOL1         0.0742
      15    H8      20.971282   17.357598   23.231186 H          1 MOL1         0.0742
      16    C6      21.749593   19.292266   22.642463 C.3        1 MOL1        -0.1856
      17    H9      21.405008   20.331820   22.566277 H          1 MOL1         0.0742
      18    H10     22.097423   18.995173   21.643492 H          1 MOL1         0.0742
      19    C7      22.927772   19.226841   23.635112 C.3        1 MOL1        -0.2871
      20    H11     22.614093   19.545251   24.637910 H          1 MOL1         0.0754
      21    H12     23.744107   19.885009   23.310343 H          1 MOL1         0.0754
      22    H13     23.324570   18.205757   23.707877 H          1 MOL1         0.0754
@<TRIPOS>BOND
    1     1     2    1
    2     1     3    2
    3     1     4    1
    4     4     5    1
    5     4     6    1
    6     4     7    1
    7     7     8    1
    8     7     9    1
    9     7    10    1
   10    10    11    1
   11    10    12    1
   12    10    13    1
   13    13    14    1
   14    13    15    1
   15    13    16    1
   16    16    17    1
   17    16    18    1
   18    16    19    1
   19    19    20    1
   20    19    21    1
   21    19    22    1
@<TRIPOS>SUBSTRUCTURE
       1 MOL1            1 RESIDUE      1      MOL     
@<SCITEGIC>MOL_PROPERTY
VConf Rank
SciTegic.value.IntegerValue
531

@<SCITEGIC>MOL_PROPERTY
Conf_Id
SciTegic.value.IntegerValue
53

@<SCITEGIC>MOL_PROPERTY
Delta U+W
SciTegic.value.DoubleValue
0.723

@<SCITEGIC>MOL_PROPERTY
U+W
SciTegic.value.DoubleValue
-52.436

@<SCITEGIC>MOL_PROPERTY
Grad RMS
SciTegic.value.DoubleValue
0.000000

@<SCITEGIC>MOL_PROPERTY
U
SciTegic.value.DoubleValue
8.587

@<SCITEGIC>MOL_PROPERTY
W
SciTegic.value.DoubleValue
-61.022

@<SCITEGIC>MOL_PROPERTY
W(PB)
SciTegic.value.DoubleValue
-63.285

@<SCITEGIC>MOL_PROPERTY
W(SA)
SciTegic.value.DoubleValue
2.263

@<SCITEGIC>MOL_PROPERTY
Valence
SciTegic.value.DoubleValue
7.933

@<SCITEGIC>MOL_PROPERTY
Coulomb
SciTegic.value.DoubleValue
-0.124

@<SCITEGIC>MOL_PROPERTY
VdW
SciTegic.value.DoubleValue
0.778

@<SCITEGIC>MOL_PROPERTY
VdW6
SciTegic.value.DoubleValue
-7.981

@<SCITEGIC>MOL_PROPERTY
VdW12
SciTegic.value.DoubleValue
8.759

@<SCITEGIC>MOL_PROPERTY
Bond
SciTegic.value.DoubleValue
0.160

@<SCITEGIC>MOL_PROPERTY
Angle
SciTegic.value.DoubleValue
2.698

@<SCITEGIC>MOL_PROPERTY
Pdih
SciTegic.value.DoubleValue
5.074

@<SCITEGIC>MOL_PROPERTY
Idih
SciTegic.value.DoubleValue
0.001

@<SCITEGIC>MOL_PROPERTY
Tether
SciTegic.value.DoubleValue
0.000

@<TRIPOS>MOLECULE
guest-s21_confgen4.mol2 : confsearch ligand conformer 532
          22          21           1
SMALL
USER_CHARGES
 
@<TRIPOS>ATOM
       1    C1      16.688180   18.967652   21.024832 C.2        1 MOL1         0.6145
       2    O1      16.672699   18.216312   20.069941 O.co2      1 MOL1        -0.6735
       3    O2      15.702444   19.539233   21.446972 O.co2      1 MOL1        -0.6735
       4    C2      18.012621   19.188221   21.746778 C.3        1 MOL1        -0.1985
       5    H1      18.010882   20.203949   22.159784 H          1 MOL1         0.0740
       6    H2      18.810655   19.137110   20.997606 H          1 MOL1         0.0740
       7    C3      18.262849   18.152256   22.871633 C.3        1 MOL1        -0.1882
       8    H3      17.383896   18.129167   23.530669 H          1 MOL1         0.0742
       9    H4      18.341066   17.149821   22.428618 H          1 MOL1         0.0742
      10    C4      19.517090   18.437611   23.735414 C.3        1 MOL1        -0.1880
      11    H5      19.559461   17.669984   24.520208 H          1 MOL1         0.0742
      12    H6      19.403331   19.395513   24.261188 H          1 MOL1         0.0742
      13    C5      20.857282   18.406964   22.957819 C.3        1 MOL1        -0.1880
      14    H7      21.627212   17.970139   23.608499 H          1 MOL1         0.0742
      15    H8      20.775150   17.737927   22.090290 H          1 MOL1         0.0742
      16    C6      21.341025   19.807071   22.514595 C.3        1 MOL1        -0.1856
      17    H9      21.473469   20.446709   23.398063 H          1 MOL1         0.0742
      18    H10     20.587612   20.294658   21.884520 H          1 MOL1         0.0742
      19    C7      22.672333   19.726443   21.741001 C.3        1 MOL1        -0.2871
      20    H11     23.460526   19.278767   22.360413 H          1 MOL1         0.0754
      21    H12     23.005871   20.727915   21.439604 H          1 MOL1         0.0754
      22    H13     22.562332   19.118447   20.833477 H          1 MOL1         0.0754
@<TRIPOS>BOND
    1     1     2    1
    2     1     3    2
    3     1     4    1
    4     4     5    1
    5     4     6    1
    6     4     7    1
    7     7     8    1
    8     7     9    1
    9     7    10    1
   10    10    11    1
   11    10    12    1
   12    10    13    1
   13    13    14    1
   14    13    15    1
   15    13    16    1
   16    16    17    1
   17    16    18    1
   18    16    19    1
   19    19    20    1
   20    19    21    1
   21    19    22    1
@<TRIPOS>SUBSTRUCTURE
       1 MOL1            1 RESIDUE      1      MOL     
@<SCITEGIC>MOL_PROPERTY
VConf Rank
SciTegic.value.IntegerValue
532

@<SCITEGIC>MOL_PROPERTY
Conf_Id
SciTegic.value.IntegerValue
5

@<SCITEGIC>MOL_PROPERTY
Delta U+W
SciTegic.value.DoubleValue
2.167

@<SCITEGIC>MOL_PROPERTY
U+W
SciTegic.value.DoubleValue
-50.993

@<SCITEGIC>MOL_PROPERTY
Grad RMS
SciTegic.value.DoubleValue
0.000000

@<SCITEGIC>MOL_PROPERTY
U
SciTegic.value.DoubleValue
10.045

@<SCITEGIC>MOL_PROPERTY
W
SciTegic.value.DoubleValue
-61.037

@<SCITEGIC>MOL_PROPERTY
W(PB)
SciTegic.value.DoubleValue
-63.303

@<SCITEGIC>MOL_PROPERTY
W(SA)
SciTegic.value.DoubleValue
2.266

@<SCITEGIC>MOL_PROPERTY
Valence
SciTegic.value.DoubleValue
10.100

@<SCITEGIC>MOL_PROPERTY
Coulomb
SciTegic.value.DoubleValue
-0.883

@<SCITEGIC>MOL_PROPERTY
VdW
SciTegic.value.DoubleValue
0.828

@<SCITEGIC>MOL_PROPERTY
VdW6
SciTegic.value.DoubleValue
-8.177

@<SCITEGIC>MOL_PROPERTY
VdW12
SciTegic.value.DoubleValue
9.005

@<SCITEGIC>MOL_PROPERTY
Bond
SciTegic.value.DoubleValue
0.182

@<SCITEGIC>MOL_PROPERTY
Angle
SciTegic.value.DoubleValue
2.988

@<SCITEGIC>MOL_PROPERTY
Pdih
SciTegic.value.DoubleValue
6.930

@<SCITEGIC>MOL_PROPERTY
Idih
SciTegic.value.DoubleValue
0.001

@<SCITEGIC>MOL_PROPERTY
Tether
SciTegic.value.DoubleValue
0.000

@<TRIPOS>MOLECULE
guest-s21_confgen4.mol2 : confsearch ligand conformer 533
          22          21           1
SMALL
USER_CHARGES
 
@<TRIPOS>ATOM
       1    C1      16.747628   19.955339   22.907242 C.2        1 MOL1         0.6145
       2    O1      16.083791   19.024184   23.318144 O.co2      1 MOL1        -0.6735
       3    O2      16.289741   21.056415   22.673673 O.co2      1 MOL1        -0.6735
       4    C2      18.232009   19.723380   22.648768 C.3        1 MOL1        -0.1985
       5    H1      18.588509   19.000863   23.391470 H          1 MOL1         0.0740
       6    H2      18.760561   20.667698   22.825342 H          1 MOL1         0.0740
       7    C3      18.518406   19.208246   21.215675 C.3        1 MOL1        -0.1882
       8    H3      18.047254   18.224328   21.084616 H          1 MOL1         0.0742
       9    H4      18.030985   19.880580   20.496085 H          1 MOL1         0.0742
      10    C4      20.023371   19.115009   20.859222 C.3        1 MOL1        -0.1880
      11    H5      20.481469   20.113032   20.891626 H          1 MOL1         0.0742
      12    H6      20.095487   18.787726   19.812976 H          1 MOL1         0.0742
      13    C5      20.833425   18.123039   21.731873 C.3        1 MOL1        -0.1880
      14    H7      20.177891   17.322124   22.100348 H          1 MOL1         0.0742
      15    H8      21.585070   17.634499   21.096774 H          1 MOL1         0.0742
      16    C6      21.568766   18.802392   22.910224 C.3        1 MOL1        -0.1856
      17    H9      20.857536   19.329712   23.557102 H          1 MOL1         0.0742
      18    H10     22.262533   19.560837   22.522095 H          1 MOL1         0.0742
      19    C7      22.354924   17.777529   23.752211 C.3        1 MOL1        -0.2871
      20    H11     21.681880   17.023467   24.180885 H          1 MOL1         0.0754
      21    H12     22.876705   18.275610   24.579673 H          1 MOL1         0.0754
      22    H13     23.105529   17.259568   23.140949 H          1 MOL1         0.0754
@<TRIPOS>BOND
    1     1     2    1
    2     1     3    2
    3     1     4    1
    4     4     5    1
    5     4     6    1
    6     4     7    1
    7     7     8    1
    8     7     9    1
    9     7    10    1
   10    10    11    1
   11    10    12    1
   12    10    13    1
   13    13    14    1
   14    13    15    1
   15    13    16    1
   16    16    17    1
   17    16    18    1
   18    16    19    1
   19    19    20    1
   20    19    21    1
   21    19    22    1
@<TRIPOS>SUBSTRUCTURE
       1 MOL1            1 RESIDUE      1      MOL     
@<SCITEGIC>MOL_PROPERTY
VConf Rank
SciTegic.value.IntegerValue
533

@<SCITEGIC>MOL_PROPERTY
Conf_Id
SciTegic.value.IntegerValue
6

@<SCITEGIC>MOL_PROPERTY
Delta U+W
SciTegic.value.DoubleValue
2.118

@<SCITEGIC>MOL_PROPERTY
U+W
SciTegic.value.DoubleValue
-51.042

@<SCITEGIC>MOL_PROPERTY
Grad RMS
SciTegic.value.DoubleValue
0.000000

@<SCITEGIC>MOL_PROPERTY
U
SciTegic.value.DoubleValue
10.045

@<SCITEGIC>MOL_PROPERTY
W
SciTegic.value.DoubleValue
-61.086

@<SCITEGIC>MOL_PROPERTY
W(PB)
SciTegic.value.DoubleValue
-63.356

@<SCITEGIC>MOL_PROPERTY
W(SA)
SciTegic.value.DoubleValue
2.270

@<SCITEGIC>MOL_PROPERTY
Valence
SciTegic.value.DoubleValue
10.100

@<SCITEGIC>MOL_PROPERTY
Coulomb
SciTegic.value.DoubleValue
-0.883

@<SCITEGIC>MOL_PROPERTY
VdW
SciTegic.value.DoubleValue
0.828

@<SCITEGIC>MOL_PROPERTY
VdW6
SciTegic.value.DoubleValue
-8.177

@<SCITEGIC>MOL_PROPERTY
VdW12
SciTegic.value.DoubleValue
9.004

@<SCITEGIC>MOL_PROPERTY
Bond
SciTegic.value.DoubleValue
0.182

@<SCITEGIC>MOL_PROPERTY
Angle
SciTegic.value.DoubleValue
2.988

@<SCITEGIC>MOL_PROPERTY
Pdih
SciTegic.value.DoubleValue
6.930

@<SCITEGIC>MOL_PROPERTY
Idih
SciTegic.value.DoubleValue
0.001

@<SCITEGIC>MOL_PROPERTY
Tether
SciTegic.value.DoubleValue
0.000

@<TRIPOS>MOLECULE
guest-s21_confgen4.mol2 : confsearch ligand conformer 534
          22          21           1
SMALL
USER_CHARGES
 
@<TRIPOS>ATOM
       1    C1      20.909332   20.070028   24.732751 C.2        1 MOL1         0.6145
       2    O1      20.577151   21.238662   24.770791 O.co2      1 MOL1        -0.6735
       3    O2      22.026398   19.700357   24.428512 O.co2      1 MOL1        -0.6735
       4    C2      19.891866   19.012735   25.157425 C.3        1 MOL1        -0.1985
       5    H1      19.665973   19.208638   26.211999 H          1 MOL1         0.0740
       6    H2      20.366110   18.024675   25.116519 H          1 MOL1         0.0740
       7    C3      18.564084   19.006582   24.348699 C.3        1 MOL1        -0.1882
       8    H3      17.802529   18.493737   24.951563 H          1 MOL1         0.0742
       9    H4      18.201570   20.035416   24.215822 H          1 MOL1         0.0742
      10    C4      18.641713   18.289589   22.978002 C.3        1 MOL1        -0.1880
      11    H5      17.622778   18.212296   22.574552 H          1 MOL1         0.0742
      12    H6      18.996640   17.259576   23.119169 H          1 MOL1         0.0742
      13    C5      19.533122   19.008523   21.940201 C.3        1 MOL1        -0.1880
      14    H7      19.243547   20.066300   21.874619 H          1 MOL1         0.0742
      15    H8      20.580665   18.981642   22.265767 H          1 MOL1         0.0742
      16    C6      19.425604   18.355506   20.545944 C.3        1 MOL1        -0.1856
      17    H9      18.382263   18.383040   20.202377 H          1 MOL1         0.0742
      18    H10     19.713239   17.296949   20.610271 H          1 MOL1         0.0742
      19    C7      20.322681   19.068553   19.514327 C.3        1 MOL1        -0.2871
      20    H11     20.035985   20.122926   19.407219 H          1 MOL1         0.0754
      21    H12     20.235114   18.591368   18.529619 H          1 MOL1         0.0754
      22    H13     21.377122   19.029432   19.817850 H          1 MOL1         0.0754
@<TRIPOS>BOND
    1     1     2    1
    2     1     3    2
    3     1     4    1
    4     4     5    1
    5     4     6    1
    6     4     7    1
    7     7     8    1
    8     7     9    1
    9     7    10    1
   10    10    11    1
   11    10    12    1
   12    10    13    1
   13    13    14    1
   14    13    15    1
   15    13    16    1
   16    16    17    1
   17    16    18    1
   18    16    19    1
   19    19    20    1
   20    19    21    1
   21    19    22    1
@<TRIPOS>SUBSTRUCTURE
       1 MOL1            1 RESIDUE      1      MOL     
@<SCITEGIC>MOL_PROPERTY
VConf Rank
SciTegic.value.IntegerValue
534

@<SCITEGIC>MOL_PROPERTY
Conf_Id
SciTegic.value.IntegerValue
8

@<SCITEGIC>MOL_PROPERTY
Delta U+W
SciTegic.value.DoubleValue
1.886

@<SCITEGIC>MOL_PROPERTY
U+W
SciTegic.value.DoubleValue
-51.274

@<SCITEGIC>MOL_PROPERTY
Grad RMS
SciTegic.value.DoubleValue
0.000000

@<SCITEGIC>MOL_PROPERTY
U
SciTegic.value.DoubleValue
11.237

@<SCITEGIC>MOL_PROPERTY
W
SciTegic.value.DoubleValue
-62.510

@<SCITEGIC>MOL_PROPERTY
W(PB)
SciTegic.value.DoubleValue
-64.777

@<SCITEGIC>MOL_PROPERTY
W(SA)
SciTegic.value.DoubleValue
2.267

@<SCITEGIC>MOL_PROPERTY
Valence
SciTegic.value.DoubleValue
9.029

@<SCITEGIC>MOL_PROPERTY
Coulomb
SciTegic.value.DoubleValue
1.667

@<SCITEGIC>MOL_PROPERTY
VdW
SciTegic.value.DoubleValue
0.540

@<SCITEGIC>MOL_PROPERTY
VdW6
SciTegic.value.DoubleValue
-8.825

@<SCITEGIC>MOL_PROPERTY
VdW12
SciTegic.value.DoubleValue
9.365

@<SCITEGIC>MOL_PROPERTY
Bond
SciTegic.value.DoubleValue
0.186

@<SCITEGIC>MOL_PROPERTY
Angle
SciTegic.value.DoubleValue
3.195

@<SCITEGIC>MOL_PROPERTY
Pdih
SciTegic.value.DoubleValue
5.642

@<SCITEGIC>MOL_PROPERTY
Idih
SciTegic.value.DoubleValue
0.007

@<SCITEGIC>MOL_PROPERTY
Tether
SciTegic.value.DoubleValue
0.000

@<TRIPOS>MOLECULE
guest-s21_confgen4.mol2 : confsearch ligand conformer 535
          22          21           1
SMALL
USER_CHARGES
 
@<TRIPOS>ATOM
       1    C1      19.569096   20.228772   19.643692 C.2        1 MOL1         0.6145
       2    O1      20.657720   19.751071   19.391773 O.co2      1 MOL1        -0.6735
       3    O2      19.271637   21.383827   19.409867 O.co2      1 MOL1        -0.6735
       4    C2      18.506254   19.323131   20.259601 C.3        1 MOL1        -0.1985
       5    H1      18.824495   18.280673   20.146856 H          1 MOL1         0.0740
       6    H2      17.596019   19.434767   19.658991 H          1 MOL1         0.0740
       7    C3      18.182438   19.642144   21.745037 C.3        1 MOL1        -0.1882
       8    H3      17.792126   20.667437   21.806326 H          1 MOL1         0.0742
       9    H4      17.372065   18.984180   22.086665 H          1 MOL1         0.0742
      10    C4      19.386585   19.510887   22.710197 C.3        1 MOL1        -0.1880
      11    H5      19.063281   19.849802   23.702470 H          1 MOL1         0.0742
      12    H6      20.189382   20.192127   22.396582 H          1 MOL1         0.0742
      13    C5      19.940126   18.068466   22.812455 C.3        1 MOL1        -0.1880
      14    H7      19.135648   17.380944   23.106770 H          1 MOL1         0.0742
      15    H8      20.285782   17.742120   21.823034 H          1 MOL1         0.0742
      16    C6      21.123805   17.933346   23.798684 C.3        1 MOL1        -0.1856
      17    H9      21.923755   18.631354   23.515416 H          1 MOL1         0.0742
      18    H10     21.546028   16.923428   23.703981 H          1 MOL1         0.0742
      19    C7      20.725805   18.166715   25.272437 C.3        1 MOL1        -0.2871
      20    H11     20.410830   19.203322   25.444438 H          1 MOL1         0.0754
      21    H12     21.576741   17.964736   25.935769 H          1 MOL1         0.0754
      22    H13     19.902883   17.502581   25.567096 H          1 MOL1         0.0754
@<TRIPOS>BOND
    1     1     2    1
    2     1     3    2
    3     1     4    1
    4     4     5    1
    5     4     6    1
    6     4     7    1
    7     7     8    1
    8     7     9    1
    9     7    10    1
   10    10    11    1
   11    10    12    1
   12    10    13    1
   13    13    14    1
   14    13    15    1
   15    13    16    1
   16    16    17    1
   17    16    18    1
   18    16    19    1
   19    19    20    1
   20    19    21    1
   21    19    22    1
@<TRIPOS>SUBSTRUCTURE
       1 MOL1            1 RESIDUE      1      MOL     
@<SCITEGIC>MOL_PROPERTY
VConf Rank
SciTegic.value.IntegerValue
535

@<SCITEGIC>MOL_PROPERTY
Conf_Id
SciTegic.value.IntegerValue
93

@<SCITEGIC>MOL_PROPERTY
Delta U+W
SciTegic.value.DoubleValue
1.836

@<SCITEGIC>MOL_PROPERTY
U+W
SciTegic.value.DoubleValue
-51.323

@<SCITEGIC>MOL_PROPERTY
Grad RMS
SciTegic.value.DoubleValue
0.000000

@<SCITEGIC>MOL_PROPERTY
U
SciTegic.value.DoubleValue
10.427

@<SCITEGIC>MOL_PROPERTY
W
SciTegic.value.DoubleValue
-61.751

@<SCITEGIC>MOL_PROPERTY
W(PB)
SciTegic.value.DoubleValue
-63.980

@<SCITEGIC>MOL_PROPERTY
W(SA)
SciTegic.value.DoubleValue
2.230

@<SCITEGIC>MOL_PROPERTY
Valence
SciTegic.value.DoubleValue
8.446

@<SCITEGIC>MOL_PROPERTY
Coulomb
SciTegic.value.DoubleValue
1.306

@<SCITEGIC>MOL_PROPERTY
VdW
SciTegic.value.DoubleValue
0.676

@<SCITEGIC>MOL_PROPERTY
VdW6
SciTegic.value.DoubleValue
-8.928

@<SCITEGIC>MOL_PROPERTY
VdW12
SciTegic.value.DoubleValue
9.604

@<SCITEGIC>MOL_PROPERTY
Bond
SciTegic.value.DoubleValue
0.209

@<SCITEGIC>MOL_PROPERTY
Angle
SciTegic.value.DoubleValue
3.066

@<SCITEGIC>MOL_PROPERTY
Pdih
SciTegic.value.DoubleValue
5.170

@<SCITEGIC>MOL_PROPERTY
Idih
SciTegic.value.DoubleValue
0.001

@<SCITEGIC>MOL_PROPERTY
Tether
SciTegic.value.DoubleValue
0.000

@<TRIPOS>MOLECULE
guest-s21_confgen4.mol2 : confsearch ligand conformer 536
          22          21           1
SMALL
USER_CHARGES
 
@<TRIPOS>ATOM
       1    C1      18.141336   16.481400   22.802488 C.2        1 MOL1         0.6145
       2    O1      18.431703   15.587850   23.573566 O.co2      1 MOL1        -0.6735
       3    O2      18.115395   16.345143   21.595207 O.co2      1 MOL1        -0.6735
       4    C2      17.759829   17.839007   23.386027 C.3        1 MOL1        -0.1985
       5    H1      17.006656   17.659456   24.162052 H          1 MOL1         0.0740
       6    H2      17.265431   18.430047   22.606956 H          1 MOL1         0.0740
       7    C3      18.951128   18.624482   24.000019 C.3        1 MOL1        -0.1882
       8    H3      18.577445   19.556843   24.444310 H          1 MOL1         0.0742
       9    H4      19.369604   18.035781   24.828050 H          1 MOL1         0.0742
      10    C4      20.088261   18.955496   23.001977 C.3        1 MOL1        -0.1880
      11    H5      20.492692   18.025851   22.578750 H          1 MOL1         0.0742
      12    H6      20.907179   19.421223   23.564532 H          1 MOL1         0.0742
      13    C5      19.647341   19.898838   21.856054 C.3        1 MOL1        -0.1880
      14    H7      18.845484   19.418989   21.280114 H          1 MOL1         0.0742
      15    H8      19.224065   20.821573   22.275449 H          1 MOL1         0.0742
      16    C6      20.791144   20.251888   20.876735 C.3        1 MOL1        -0.1856
      17    H9      20.366526   20.798860   20.023683 H          1 MOL1         0.0742
      18    H10     21.226664   19.329742   20.467652 H          1 MOL1         0.0742
      19    C7      21.901781   21.114979   21.514205 C.3        1 MOL1        -0.2871
      20    H11     22.440336   20.564301   22.295270 H          1 MOL1         0.0754
      21    H12     21.483532   22.026522   21.960588 H          1 MOL1         0.0754
      22    H13     22.635648   21.416541   20.755656 H          1 MOL1         0.0754
@<TRIPOS>BOND
    1     1     2    1
    2     1     3    2
    3     1     4    1
    4     4     5    1
    5     4     6    1
    6     4     7    1
    7     7     8    1
    8     7     9    1
    9     7    10    1
   10    10    11    1
   11    10    12    1
   12    10    13    1
   13    13    14    1
   14    13    15    1
   15    13    16    1
   16    16    17    1
   17    16    18    1
   18    16    19    1
   19    19    20    1
   20    19    21    1
   21    19    22    1
@<TRIPOS>SUBSTRUCTURE
       1 MOL1            1 RESIDUE      1      MOL     
@<SCITEGIC>MOL_PROPERTY
VConf Rank
SciTegic.value.IntegerValue
536

@<SCITEGIC>MOL_PROPERTY
Conf_Id
SciTegic.value.IntegerValue
70

@<SCITEGIC>MOL_PROPERTY
Delta U+W
SciTegic.value.DoubleValue
1.803

@<SCITEGIC>MOL_PROPERTY
U+W
SciTegic.value.DoubleValue
-51.356

@<SCITEGIC>MOL_PROPERTY
Grad RMS
SciTegic.value.DoubleValue
0.000000

@<SCITEGIC>MOL_PROPERTY
U
SciTegic.value.DoubleValue
10.428

@<SCITEGIC>MOL_PROPERTY
W
SciTegic.value.DoubleValue
-61.784

@<SCITEGIC>MOL_PROPERTY
W(PB)
SciTegic.value.DoubleValue
-64.014

@<SCITEGIC>MOL_PROPERTY
W(SA)
SciTegic.value.DoubleValue
2.230

@<SCITEGIC>MOL_PROPERTY
Valence
SciTegic.value.DoubleValue
8.445

@<SCITEGIC>MOL_PROPERTY
Coulomb
SciTegic.value.DoubleValue
1.306

@<SCITEGIC>MOL_PROPERTY
VdW
SciTegic.value.DoubleValue
0.676

@<SCITEGIC>MOL_PROPERTY
VdW6
SciTegic.value.DoubleValue
-8.929

@<SCITEGIC>MOL_PROPERTY
VdW12
SciTegic.value.DoubleValue
9.605

@<SCITEGIC>MOL_PROPERTY
Bond
SciTegic.value.DoubleValue
0.209

@<SCITEGIC>MOL_PROPERTY
Angle
SciTegic.value.DoubleValue
3.066

@<SCITEGIC>MOL_PROPERTY
Pdih
SciTegic.value.DoubleValue
5.170

@<SCITEGIC>MOL_PROPERTY
Idih
SciTegic.value.DoubleValue
0.001

@<SCITEGIC>MOL_PROPERTY
Tether
SciTegic.value.DoubleValue
0.000

@<TRIPOS>MOLECULE
guest-s21_confgen4.mol2 : confsearch ligand conformer 537
          22          21           1
SMALL
USER_CHARGES
 
@<TRIPOS>ATOM
       1    C1      22.877733   19.252619   21.452755 C.2        1 MOL1         0.6145
       2    O1      22.995423   18.386233   20.608696 O.co2      1 MOL1        -0.6735
       3    O2      23.565730   19.315148   22.452569 O.co2      1 MOL1        -0.6735
       4    C2      21.821659   20.332135   21.232642 C.3        1 MOL1        -0.1985
       5    H1      21.898063   20.658323   20.188706 H          1 MOL1         0.0740
       6    H2      22.072545   21.199496   21.855202 H          1 MOL1         0.0740
       7    C3      20.372311   19.863750   21.524172 C.3        1 MOL1        -0.1882
       8    H3      19.673547   20.653306   21.216609 H          1 MOL1         0.0742
       9    H4      20.151475   18.984585   20.904550 H          1 MOL1         0.0742
      10    C4      20.145978   19.535222   23.019299 C.3        1 MOL1        -0.1880
      11    H5      20.455952   20.397671   23.625053 H          1 MOL1         0.0742
      12    H6      20.791865   18.698561   23.319522 H          1 MOL1         0.0742
      13    C5      18.674929   19.198651   23.360273 C.3        1 MOL1        -0.1880
      14    H7      18.584057   19.101616   24.450786 H          1 MOL1         0.0742
      15    H8      18.027917   20.037043   23.068144 H          1 MOL1         0.0742
      16    C6      18.171891   17.896476   22.697355 C.3        1 MOL1        -0.1856
      17    H9      18.849398   17.068184   22.946724 H          1 MOL1         0.0742
      18    H10     18.181298   18.000204   21.604419 H          1 MOL1         0.0742
      19    C7      16.742183   17.544517   23.155386 C.3        1 MOL1        -0.2871
      20    H11     16.703007   17.395082   24.242347 H          1 MOL1         0.0754
      21    H12     16.398463   16.619842   22.673835 H          1 MOL1         0.0754
      22    H13     16.038027   18.345133   22.893561 H          1 MOL1         0.0754
@<TRIPOS>BOND
    1     1     2    1
    2     1     3    2
    3     1     4    1
    4     4     5    1
    5     4     6    1
    6     4     7    1
    7     7     8    1
    8     7     9    1
    9     7    10    1
   10    10    11    1
   11    10    12    1
   12    10    13    1
   13    13    14    1
   14    13    15    1
   15    13    16    1
   16    16    17    1
   17    16    18    1
   18    16    19    1
   19    19    20    1
   20    19    21    1
   21    19    22    1
@<TRIPOS>SUBSTRUCTURE
       1 MOL1            1 RESIDUE      1      MOL     
@<SCITEGIC>MOL_PROPERTY
VConf Rank
SciTegic.value.IntegerValue
537

@<SCITEGIC>MOL_PROPERTY
Conf_Id
SciTegic.value.IntegerValue
85

@<SCITEGIC>MOL_PROPERTY
Delta U+W
SciTegic.value.DoubleValue
0.707

@<SCITEGIC>MOL_PROPERTY
U+W
SciTegic.value.DoubleValue
-52.452

@<SCITEGIC>MOL_PROPERTY
Grad RMS
SciTegic.value.DoubleValue
0.000000

@<SCITEGIC>MOL_PROPERTY
U
SciTegic.value.DoubleValue
8.925

@<SCITEGIC>MOL_PROPERTY
W
SciTegic.value.DoubleValue
-61.378

@<SCITEGIC>MOL_PROPERTY
W(PB)
SciTegic.value.DoubleValue
-63.661

@<SCITEGIC>MOL_PROPERTY
W(SA)
SciTegic.value.DoubleValue
2.283

@<SCITEGIC>MOL_PROPERTY
Valence
SciTegic.value.DoubleValue
7.881

@<SCITEGIC>MOL_PROPERTY
Coulomb
SciTegic.value.DoubleValue
0.349

@<SCITEGIC>MOL_PROPERTY
VdW
SciTegic.value.DoubleValue
0.695

@<SCITEGIC>MOL_PROPERTY
VdW6
SciTegic.value.DoubleValue
-8.049

@<SCITEGIC>MOL_PROPERTY
VdW12
SciTegic.value.DoubleValue
8.743

@<SCITEGIC>MOL_PROPERTY
Bond
SciTegic.value.DoubleValue
0.156

@<SCITEGIC>MOL_PROPERTY
Angle
SciTegic.value.DoubleValue
2.660

@<SCITEGIC>MOL_PROPERTY
Pdih
SciTegic.value.DoubleValue
5.064

@<SCITEGIC>MOL_PROPERTY
Idih
SciTegic.value.DoubleValue
0.001

@<SCITEGIC>MOL_PROPERTY
Tether
SciTegic.value.DoubleValue
0.000

@<TRIPOS>MOLECULE
guest-s21_confgen4.mol2 : confsearch ligand conformer 538
          22          21           1
SMALL
USER_CHARGES
 
@<TRIPOS>ATOM
       1    C1      21.690156   19.318934   19.624903 C.2        1 MOL1         0.6145
       2    O1      21.854187   18.285917   19.006106 O.co2      1 MOL1        -0.6735
       3    O2      21.352939   20.365769   19.107802 O.co2      1 MOL1        -0.6735
       4    C2      21.943388   19.308823   21.129951 C.3        1 MOL1        -0.1985
       5    H1      22.550008   20.191289   21.365020 H          1 MOL1         0.0740
       6    H2      22.551568   18.430405   21.377647 H          1 MOL1         0.0740
       7    C3      20.652199   19.325605   21.989159 C.3        1 MOL1        -0.1882
       8    H3      20.937215   19.475594   23.038051 H          1 MOL1         0.0742
       9    H4      20.030868   20.183710   21.697814 H          1 MOL1         0.0742
      10    C4      19.836417   18.018054   21.863087 C.3        1 MOL1        -0.1880
      11    H5      20.435614   17.176742   22.237063 H          1 MOL1         0.0742
      12    H6      19.647782   17.811512   20.800732 H          1 MOL1         0.0742
      13    C5      18.472409   18.045841   22.597412 C.3        1 MOL1        -0.1880
      14    H7      17.828962   18.825321   22.166930 H          1 MOL1         0.0742
      15    H8      17.966423   17.093243   22.389083 H          1 MOL1         0.0742
      16    C6      18.565874   18.215257   24.134443 C.3        1 MOL1        -0.1856
      17    H9      19.519385   17.814325   24.504957 H          1 MOL1         0.0742
      18    H10     17.777679   17.609809   24.602929 H          1 MOL1         0.0742
      19    C7      18.382792   19.677622   24.598122 C.3        1 MOL1        -0.2871
      20    H11     19.149217   20.338503   24.177727 H          1 MOL1         0.0754
      21    H12     18.446035   19.744243   25.691914 H          1 MOL1         0.0754
      22    H13     17.400603   20.062827   24.294794 H          1 MOL1         0.0754
@<TRIPOS>BOND
    1     1     2    1
    2     1     3    2
    3     1     4    1
    4     4     5    1
    5     4     6    1
    6     4     7    1
    7     7     8    1
    8     7     9    1
    9     7    10    1
   10    10    11    1
   11    10    12    1
   12    10    13    1
   13    13    14    1
   14    13    15    1
   15    13    16    1
   16    16    17    1
   17    16    18    1
   18    16    19    1
   19    19    20    1
   20    19    21    1
   21    19    22    1
@<TRIPOS>SUBSTRUCTURE
       1 MOL1            1 RESIDUE      1      MOL     
@<SCITEGIC>MOL_PROPERTY
VConf Rank
SciTegic.value.IntegerValue
538

@<SCITEGIC>MOL_PROPERTY
Conf_Id
SciTegic.value.IntegerValue
82

@<SCITEGIC>MOL_PROPERTY
Delta U+W
SciTegic.value.DoubleValue
3.438

@<SCITEGIC>MOL_PROPERTY
U+W
SciTegic.value.DoubleValue
-49.721

@<SCITEGIC>MOL_PROPERTY
Grad RMS
SciTegic.value.DoubleValue
0.000000

@<SCITEGIC>MOL_PROPERTY
U
SciTegic.value.DoubleValue
11.773

@<SCITEGIC>MOL_PROPERTY
W
SciTegic.value.DoubleValue
-61.495

@<SCITEGIC>MOL_PROPERTY
W(PB)
SciTegic.value.DoubleValue
-63.749

@<SCITEGIC>MOL_PROPERTY
W(SA)
SciTegic.value.DoubleValue
2.254

@<SCITEGIC>MOL_PROPERTY
Valence
SciTegic.value.DoubleValue
10.419

@<SCITEGIC>MOL_PROPERTY
Coulomb
SciTegic.value.DoubleValue
0.565

@<SCITEGIC>MOL_PROPERTY
VdW
SciTegic.value.DoubleValue
0.789

@<SCITEGIC>MOL_PROPERTY
VdW6
SciTegic.value.DoubleValue
-8.847

@<SCITEGIC>MOL_PROPERTY
VdW12
SciTegic.value.DoubleValue
9.636

@<SCITEGIC>MOL_PROPERTY
Bond
SciTegic.value.DoubleValue
0.200

@<SCITEGIC>MOL_PROPERTY
Angle
SciTegic.value.DoubleValue
3.187

@<SCITEGIC>MOL_PROPERTY
Pdih
SciTegic.value.DoubleValue
7.032

@<SCITEGIC>MOL_PROPERTY
Idih
SciTegic.value.DoubleValue
0.001

@<SCITEGIC>MOL_PROPERTY
Tether
SciTegic.value.DoubleValue
0.000

@<TRIPOS>MOLECULE
guest-s21_confgen4.mol2 : confsearch ligand conformer 539
          22          21           1
SMALL
USER_CHARGES
 
@<TRIPOS>ATOM
       1    C1      18.888143   16.062056   23.789739 C.2        1 MOL1         0.6145
       2    O1      19.361371   15.995831   24.907165 O.co2      1 MOL1        -0.6735
       3    O2      17.725279   15.815760   23.536708 O.co2      1 MOL1        -0.6735
       4    C2      19.811710   16.453536   22.639449 C.3        1 MOL1        -0.1985
       5    H1      19.349117   16.140183   21.695694 H          1 MOL1         0.0740
       6    H2      20.734515   15.871803   22.749029 H          1 MOL1         0.0740
       7    C3      20.156425   17.964992   22.590826 C.3        1 MOL1        -0.1882
       8    H3      20.575134   18.275308   23.558123 H          1 MOL1         0.0742
       9    H4      20.939446   18.116616   21.837304 H          1 MOL1         0.0742
      10    C4      18.933014   18.843454   22.240613 C.3        1 MOL1        -0.1880
      11    H5      18.110688   18.608115   22.929988 H          1 MOL1         0.0742
      12    H6      18.573702   18.584434   21.235374 H          1 MOL1         0.0742
      13    C5      19.201892   20.367498   22.314918 C.3        1 MOL1        -0.1880
      14    H7      18.253560   20.880214   22.103605 H          1 MOL1         0.0742
      15    H8      19.472442   20.652424   23.340855 H          1 MOL1         0.0742
      16    C6      20.264225   20.888844   21.315145 C.3        1 MOL1        -0.1856
      17    H9      19.954183   21.881029   20.959140 H          1 MOL1         0.0742
      18    H10     20.300722   20.243561   20.426613 H          1 MOL1         0.0742
      19    C7      21.671749   21.024087   21.937731 C.3        1 MOL1        -0.2871
      20    H11     21.658811   21.725124   22.782400 H          1 MOL1         0.0754
      21    H12     22.384605   21.406115   21.195633 H          1 MOL1         0.0754
      22    H13     22.051236   20.062899   22.302437 H          1 MOL1         0.0754
@<TRIPOS>BOND
    1     1     2    1
    2     1     3    2
    3     1     4    1
    4     4     5    1
    5     4     6    1
    6     4     7    1
    7     7     8    1
    8     7     9    1
    9     7    10    1
   10    10    11    1
   11    10    12    1
   12    10    13    1
   13    13    14    1
   14    13    15    1
   15    13    16    1
   16    16    17    1
   17    16    18    1
   18    16    19    1
   19    19    20    1
   20    19    21    1
   21    19    22    1
@<TRIPOS>SUBSTRUCTURE
       1 MOL1            1 RESIDUE      1      MOL     
@<SCITEGIC>MOL_PROPERTY
VConf Rank
SciTegic.value.IntegerValue
539

@<SCITEGIC>MOL_PROPERTY
Conf_Id
SciTegic.value.IntegerValue
94

@<SCITEGIC>MOL_PROPERTY
Delta U+W
SciTegic.value.DoubleValue
3.471

@<SCITEGIC>MOL_PROPERTY
U+W
SciTegic.value.DoubleValue
-49.688

@<SCITEGIC>MOL_PROPERTY
Grad RMS
SciTegic.value.DoubleValue
0.000000

@<SCITEGIC>MOL_PROPERTY
U
SciTegic.value.DoubleValue
11.773

@<SCITEGIC>MOL_PROPERTY
W
SciTegic.value.DoubleValue
-61.461

@<SCITEGIC>MOL_PROPERTY
W(PB)
SciTegic.value.DoubleValue
-63.710

@<SCITEGIC>MOL_PROPERTY
W(SA)
SciTegic.value.DoubleValue
2.248

@<SCITEGIC>MOL_PROPERTY
Valence
SciTegic.value.DoubleValue
10.419

@<SCITEGIC>MOL_PROPERTY
Coulomb
SciTegic.value.DoubleValue
0.566

@<SCITEGIC>MOL_PROPERTY
VdW
SciTegic.value.DoubleValue
0.789

@<SCITEGIC>MOL_PROPERTY
VdW6
SciTegic.value.DoubleValue
-8.847

@<SCITEGIC>MOL_PROPERTY
VdW12
SciTegic.value.DoubleValue
9.636

@<SCITEGIC>MOL_PROPERTY
Bond
SciTegic.value.DoubleValue
0.200

@<SCITEGIC>MOL_PROPERTY
Angle
SciTegic.value.DoubleValue
3.187

@<SCITEGIC>MOL_PROPERTY
Pdih
SciTegic.value.DoubleValue
7.032

@<SCITEGIC>MOL_PROPERTY
Idih
SciTegic.value.DoubleValue
0.001

@<SCITEGIC>MOL_PROPERTY
Tether
SciTegic.value.DoubleValue
0.000

@<TRIPOS>MOLECULE
guest-s21_confgen4.mol2 : confsearch ligand conformer 540
          22          21           1
SMALL
USER_CHARGES
 
@<TRIPOS>ATOM
       1    C1      18.310883   22.005132   21.885378 C.2        1 MOL1         0.6145
       2    O1      17.592212   22.415103   20.995358 O.co2      1 MOL1        -0.6735
       3    O2      19.034027   22.721057   22.549523 O.co2      1 MOL1        -0.6735
       4    C2      18.319740   20.507743   22.171174 C.3        1 MOL1        -0.1985
       5    H1      17.317599   20.114734   21.962635 H          1 MOL1         0.0740
       6    H2      18.505943   20.373623   23.242796 H          1 MOL1         0.0740
       7    C3      19.378716   19.743445   21.335187 C.3        1 MOL1        -0.1882
       8    H3      19.215099   19.964144   20.271411 H          1 MOL1         0.0742
       9    H4      20.380474   20.124742   21.573767 H          1 MOL1         0.0742
      10    C4      19.332209   18.207606   21.533809 C.3        1 MOL1        -0.1880
      11    H5      20.072977   17.741270   20.871036 H          1 MOL1         0.0742
      12    H6      18.355472   17.835995   21.195524 H          1 MOL1         0.0742
      13    C5      19.569408   17.722316   22.988250 C.3        1 MOL1        -0.1880
      14    H7      18.737039   18.054108   23.622542 H          1 MOL1         0.0742
      15    H8      19.532340   16.624589   23.001147 H          1 MOL1         0.0742
      16    C6      20.902220   18.183424   23.627717 C.3        1 MOL1        -0.1856
      17    H9      20.946074   17.804304   24.657889 H          1 MOL1         0.0742
      18    H10     20.925270   19.278582   23.705830 H          1 MOL1         0.0742
      19    C7      22.148868   17.688907   22.862782 C.3        1 MOL1        -0.2871
      20    H11     22.137939   16.596203   22.758703 H          1 MOL1         0.0754
      21    H12     23.064834   17.969113   23.398726 H          1 MOL1         0.0754
      22    H13     22.201818   18.130230   21.859594 H          1 MOL1         0.0754
@<TRIPOS>BOND
    1     1     2    1
    2     1     3    2
    3     1     4    1
    4     4     5    1
    5     4     6    1
    6     4     7    1
    7     7     8    1
    8     7     9    1
    9     7    10    1
   10    10    11    1
   11    10    12    1
   12    10    13    1
   13    13    14    1
   14    13    15    1
   15    13    16    1
   16    16    17    1
   17    16    18    1
   18    16    19    1
   19    19    20    1
   20    19    21    1
   21    19    22    1
@<TRIPOS>SUBSTRUCTURE
       1 MOL1            1 RESIDUE      1      MOL     
@<SCITEGIC>MOL_PROPERTY
VConf Rank
SciTegic.value.IntegerValue
540

@<SCITEGIC>MOL_PROPERTY
Conf_Id
SciTegic.value.IntegerValue
56

@<SCITEGIC>MOL_PROPERTY
Delta U+W
SciTegic.value.DoubleValue
0.853

@<SCITEGIC>MOL_PROPERTY
U+W
SciTegic.value.DoubleValue
-52.307

@<SCITEGIC>MOL_PROPERTY
Grad RMS
SciTegic.value.DoubleValue
0.000000

@<SCITEGIC>MOL_PROPERTY
U
SciTegic.value.DoubleValue
8.874

@<SCITEGIC>MOL_PROPERTY
W
SciTegic.value.DoubleValue
-61.181

@<SCITEGIC>MOL_PROPERTY
W(PB)
SciTegic.value.DoubleValue
-63.413

@<SCITEGIC>MOL_PROPERTY
W(SA)
SciTegic.value.DoubleValue
2.232

@<SCITEGIC>MOL_PROPERTY
Valence
SciTegic.value.DoubleValue
8.479

@<SCITEGIC>MOL_PROPERTY
Coulomb
SciTegic.value.DoubleValue
-0.357

@<SCITEGIC>MOL_PROPERTY
VdW
SciTegic.value.DoubleValue
0.753

@<SCITEGIC>MOL_PROPERTY
VdW6
SciTegic.value.DoubleValue
-9.081

@<SCITEGIC>MOL_PROPERTY
VdW12
SciTegic.value.DoubleValue
9.833

@<SCITEGIC>MOL_PROPERTY
Bond
SciTegic.value.DoubleValue
0.221

@<SCITEGIC>MOL_PROPERTY
Angle
SciTegic.value.DoubleValue
3.208

@<SCITEGIC>MOL_PROPERTY
Pdih
SciTegic.value.DoubleValue
5.050

@<SCITEGIC>MOL_PROPERTY
Idih
SciTegic.value.DoubleValue
0.000

@<SCITEGIC>MOL_PROPERTY
Tether
SciTegic.value.DoubleValue
0.000

@<TRIPOS>MOLECULE
guest-s21_confgen4.mol2 : confsearch ligand conformer 541
          22          21           1
SMALL
USER_CHARGES
 
@<TRIPOS>ATOM
       1    C1      17.050336   16.005348   22.415702 C.2        1 MOL1         0.6145
       2    O1      16.127853   16.767003   22.198196 O.co2      1 MOL1        -0.6735
       3    O2      16.896992   14.815792   22.609000 O.co2      1 MOL1        -0.6735
       4    C2      18.482931   16.539855   22.454403 C.3        1 MOL1        -0.1985
       5    H1      19.059855   15.983412   21.706405 H          1 MOL1         0.0740
       6    H2      18.900348   16.285721   23.435803 H          1 MOL1         0.0740
       7    C3      18.628484   18.064060   22.201375 C.3        1 MOL1        -0.1882
       8    H3      18.202776   18.312804   21.219343 H          1 MOL1         0.0742
       9    H4      18.043283   18.615400   22.950411 H          1 MOL1         0.0742
      10    C4      20.103565   18.517309   22.258053 C.3        1 MOL1        -0.1880
      11    H5      20.686561   17.964786   21.508410 H          1 MOL1         0.0742
      12    H6      20.527002   18.267467   23.240607 H          1 MOL1         0.0742
      13    C5      20.246068   20.033743   22.006205 C.3        1 MOL1        -0.1880
      14    H7      19.822701   20.284090   21.023752 H          1 MOL1         0.0742
      15    H8      19.663245   20.586703   22.755657 H          1 MOL1         0.0742
      16    C6      21.719889   20.487362   22.062637 C.3        1 MOL1        -0.1856
      17    H9      22.305709   19.937774   21.312807 H          1 MOL1         0.0742
      18    H10     22.146276   20.240324   23.044799 H          1 MOL1         0.0742
      19    C7      21.857882   22.002232   21.810718 C.3        1 MOL1        -0.2871
      20    H11     21.467354   22.272996   20.820979 H          1 MOL1         0.0754
      21    H12     22.911507   22.307289   21.854380 H          1 MOL1         0.0754
      22    H13     21.306791   22.577808   22.565979 H          1 MOL1         0.0754
@<TRIPOS>BOND
    1     1     2    1
    2     1     3    2
    3     1     4    1
    4     4     5    1
    5     4     6    1
    6     4     7    1
    7     7     8    1
    8     7     9    1
    9     7    10    1
   10    10    11    1
   11    10    12    1
   12    10    13    1
   13    13    14    1
   14    13    15    1
   15    13    16    1
   16    16    17    1
   17    16    18    1
   18    16    19    1
   19    19    20    1
   20    19    21    1
   21    19    22    1
@<TRIPOS>SUBSTRUCTURE
       1 MOL1            1 RESIDUE      1      MOL     
@<SCITEGIC>MOL_PROPERTY
VConf Rank
SciTegic.value.IntegerValue
541

@<SCITEGIC>MOL_PROPERTY
Conf_Id
SciTegic.value.IntegerValue
0

@<SCITEGIC>MOL_PROPERTY
Delta U+W
SciTegic.value.DoubleValue
0.000

@<SCITEGIC>MOL_PROPERTY
U+W
SciTegic.value.DoubleValue
-53.159

@<SCITEGIC>MOL_PROPERTY
Grad RMS
SciTegic.value.DoubleValue
0.000000

@<SCITEGIC>MOL_PROPERTY
U
SciTegic.value.DoubleValue
6.763

@<SCITEGIC>MOL_PROPERTY
W
SciTegic.value.DoubleValue
-59.922

@<SCITEGIC>MOL_PROPERTY
W(PB)
SciTegic.value.DoubleValue
-62.256

@<SCITEGIC>MOL_PROPERTY
W(SA)
SciTegic.value.DoubleValue
2.334

@<SCITEGIC>MOL_PROPERTY
Valence
SciTegic.value.DoubleValue
7.600

@<SCITEGIC>MOL_PROPERTY
Coulomb
SciTegic.value.DoubleValue
-2.139

@<SCITEGIC>MOL_PROPERTY
VdW
SciTegic.value.DoubleValue
1.302

@<SCITEGIC>MOL_PROPERTY
VdW6
SciTegic.value.DoubleValue
-6.786

@<SCITEGIC>MOL_PROPERTY
VdW12
SciTegic.value.DoubleValue
8.088

@<SCITEGIC>MOL_PROPERTY
Bond
SciTegic.value.DoubleValue
0.134

@<SCITEGIC>MOL_PROPERTY
Angle
SciTegic.value.DoubleValue
2.720

@<SCITEGIC>MOL_PROPERTY
Pdih
SciTegic.value.DoubleValue
4.746

@<SCITEGIC>MOL_PROPERTY
Idih
SciTegic.value.DoubleValue
0.000

@<SCITEGIC>MOL_PROPERTY
Tether
SciTegic.value.DoubleValue
0.000

@<TRIPOS>MOLECULE
guest-s21_confgen4.mol2 : confsearch ligand conformer 542
          22          21           1
SMALL
USER_CHARGES
 
@<TRIPOS>ATOM
       1    C1      18.334455   19.326959   25.898638 C.2        1 MOL1         0.6145
       2    O1      18.996762   20.034175   26.631868 O.co2      1 MOL1        -0.6735
       3    O2      17.708830   18.358578   26.282382 O.co2      1 MOL1        -0.6735
       4    C2      18.304854   19.659951   24.411206 C.3        1 MOL1        -0.1985
       5    H1      18.386204   20.748323   24.304008 H          1 MOL1         0.0740
       6    H2      17.324519   19.367621   24.016049 H          1 MOL1         0.0740
       7    C3      19.432838   18.958639   23.615051 C.3        1 MOL1        -0.1882
       8    H3      20.406816   19.251436   24.031236 H          1 MOL1         0.0742
       9    H4      19.345164   17.870777   23.743284 H          1 MOL1         0.0742
      10    C4      19.381206   19.311645   22.112852 C.3        1 MOL1        -0.1880
      11    H5      19.467861   20.399828   21.988265 H          1 MOL1         0.0742
      12    H6      18.405912   19.018851   21.700245 H          1 MOL1         0.0742
      13    C5      20.506726   18.611121   21.321801 C.3        1 MOL1        -0.1880
      14    H7      21.482198   18.903653   21.734117 H          1 MOL1         0.0742
      15    H8      20.420428   17.522903   21.446142 H          1 MOL1         0.0742
      16    C6      20.455795   18.963438   19.820353 C.3        1 MOL1        -0.1856
      17    H9      20.543856   20.051186   19.691795 H          1 MOL1         0.0742
      18    H10     19.482076   18.670449   19.403815 H          1 MOL1         0.0742
      19    C7      21.581310   18.261954   19.033920 C.3        1 MOL1        -0.2871
      20    H11     21.498733   17.170481   19.119217 H          1 MOL1         0.0754
      21    H12     22.568532   18.561521   19.409500 H          1 MOL1         0.0754
      22    H13     21.530203   18.523490   17.968988 H          1 MOL1         0.0754
@<TRIPOS>BOND
    1     1     2    1
    2     1     3    2
    3     1     4    1
    4     4     5    1
    5     4     6    1
    6     4     7    1
    7     7     8    1
    8     7     9    1
    9     7    10    1
   10    10    11    1
   11    10    12    1
   12    10    13    1
   13    13    14    1
   14    13    15    1
   15    13    16    1
   16    16    17    1
   17    16    18    1
   18    16    19    1
   19    19    20    1
   20    19    21    1
   21    19    22    1
@<TRIPOS>SUBSTRUCTURE
       1 MOL1            1 RESIDUE      1      MOL     
@<SCITEGIC>MOL_PROPERTY
VConf Rank
SciTegic.value.IntegerValue
542

@<SCITEGIC>MOL_PROPERTY
Conf_Id
SciTegic.value.IntegerValue
10

@<SCITEGIC>MOL_PROPERTY
Delta U+W
SciTegic.value.DoubleValue
-1.291

@<SCITEGIC>MOL_PROPERTY
U+W
SciTegic.value.DoubleValue
-54.451

@<SCITEGIC>MOL_PROPERTY
Grad RMS
SciTegic.value.DoubleValue
0.000000

@<SCITEGIC>MOL_PROPERTY
U
SciTegic.value.DoubleValue
5.779

@<SCITEGIC>MOL_PROPERTY
W
SciTegic.value.DoubleValue
-60.230

@<SCITEGIC>MOL_PROPERTY
W(PB)
SciTegic.value.DoubleValue
-62.557

@<SCITEGIC>MOL_PROPERTY
W(SA)
SciTegic.value.DoubleValue
2.328

@<SCITEGIC>MOL_PROPERTY
Valence
SciTegic.value.DoubleValue
7.101

@<SCITEGIC>MOL_PROPERTY
Coulomb
SciTegic.value.DoubleValue
-2.079

@<SCITEGIC>MOL_PROPERTY
VdW
SciTegic.value.DoubleValue
0.757

@<SCITEGIC>MOL_PROPERTY
VdW6
SciTegic.value.DoubleValue
-6.496

@<SCITEGIC>MOL_PROPERTY
VdW12
SciTegic.value.DoubleValue
7.253

@<SCITEGIC>MOL_PROPERTY
Bond
SciTegic.value.DoubleValue
0.100

@<SCITEGIC>MOL_PROPERTY
Angle
SciTegic.value.DoubleValue
2.262

@<SCITEGIC>MOL_PROPERTY
Pdih
SciTegic.value.DoubleValue
4.738

@<SCITEGIC>MOL_PROPERTY
Idih
SciTegic.value.DoubleValue
0.001

@<SCITEGIC>MOL_PROPERTY
Tether
SciTegic.value.DoubleValue
0.000

@<TRIPOS>MOLECULE
guest-s21_confgen4.mol2 : confsearch ligand conformer 543
          22          21           1
SMALL
USER_CHARGES
 
@<TRIPOS>ATOM
       1    C1      22.600060   18.992820   19.430870 C.2        1 MOL1         0.6145
       2    O1      22.537970   18.027434   18.695597 O.co2      1 MOL1        -0.6735
       3    O2      23.052174   20.068669   19.092346 O.co2      1 MOL1        -0.6735
       4    C2      22.061609   18.852594   20.850242 C.3        1 MOL1        -0.1985
       5    H1      22.654988   19.501574   21.505507 H          1 MOL1         0.0740
       6    H2      22.230050   17.819731   21.178081 H          1 MOL1         0.0740
       7    C3      20.559096   19.210516   20.962035 C.3        1 MOL1        -0.1882
       8    H3      20.405695   20.242662   20.617572 H          1 MOL1         0.0742
       9    H4      19.980251   18.560735   20.291010 H          1 MOL1         0.0742
      10    C4      20.038438   19.060556   22.407985 C.3        1 MOL1        -0.1880
      11    H5      20.617429   19.712700   23.076066 H          1 MOL1         0.0742
      12    H6      20.202944   18.028587   22.744355 H          1 MOL1         0.0742
      13    C5      18.537373   19.415407   22.513559 C.3        1 MOL1        -0.1880
      14    H7      18.379141   20.424004   22.107816 H          1 MOL1         0.0742
      15    H8      17.950179   18.731692   21.885331 H          1 MOL1         0.0742
      16    C6      17.997391   19.378874   23.962142 C.3        1 MOL1        -0.1856
      17    H9      16.964976   19.754846   23.962965 H          1 MOL1         0.0742
      18    H10     18.578374   20.066422   24.592257 H          1 MOL1         0.0742
      19    C7      18.012046   17.965883   24.584598 C.3        1 MOL1        -0.2871
      20    H11     17.538801   17.977938   25.574958 H          1 MOL1         0.0754
      21    H12     19.036545   17.594214   24.710958 H          1 MOL1         0.0754
      22    H13     17.461891   17.253786   23.955804 H          1 MOL1         0.0754
@<TRIPOS>BOND
    1     1     2    1
    2     1     3    2
    3     1     4    1
    4     4     5    1
    5     4     6    1
    6     4     7    1
    7     7     8    1
    8     7     9    1
    9     7    10    1
   10    10    11    1
   11    10    12    1
   12    10    13    1
   13    13    14    1
   14    13    15    1
   15    13    16    1
   16    16    17    1
   17    16    18    1
   18    16    19    1
   19    19    20    1
   20    19    21    1
   21    19    22    1
@<TRIPOS>SUBSTRUCTURE
       1 MOL1            1 RESIDUE      1      MOL     
@<SCITEGIC>MOL_PROPERTY
VConf Rank
SciTegic.value.IntegerValue
543

@<SCITEGIC>MOL_PROPERTY
Conf_Id
SciTegic.value.IntegerValue
37

@<SCITEGIC>MOL_PROPERTY
Delta U+W
SciTegic.value.DoubleValue
-0.345

@<SCITEGIC>MOL_PROPERTY
U+W
SciTegic.value.DoubleValue
-53.504

@<SCITEGIC>MOL_PROPERTY
Grad RMS
SciTegic.value.DoubleValue
0.000000

@<SCITEGIC>MOL_PROPERTY
U
SciTegic.value.DoubleValue
6.751

@<SCITEGIC>MOL_PROPERTY
W
SciTegic.value.DoubleValue
-60.255

@<SCITEGIC>MOL_PROPERTY
W(PB)
SciTegic.value.DoubleValue
-62.592

@<SCITEGIC>MOL_PROPERTY
W(SA)
SciTegic.value.DoubleValue
2.336

@<SCITEGIC>MOL_PROPERTY
Valence
SciTegic.value.DoubleValue
7.602

@<SCITEGIC>MOL_PROPERTY
Coulomb
SciTegic.value.DoubleValue
-1.744

@<SCITEGIC>MOL_PROPERTY
VdW
SciTegic.value.DoubleValue
0.894

@<SCITEGIC>MOL_PROPERTY
VdW6
SciTegic.value.DoubleValue
-7.110

@<SCITEGIC>MOL_PROPERTY
VdW12
SciTegic.value.DoubleValue
8.004

@<SCITEGIC>MOL_PROPERTY
Bond
SciTegic.value.DoubleValue
0.131

@<SCITEGIC>MOL_PROPERTY
Angle
SciTegic.value.DoubleValue
2.489

@<SCITEGIC>MOL_PROPERTY
Pdih
SciTegic.value.DoubleValue
4.982

@<SCITEGIC>MOL_PROPERTY
Idih
SciTegic.value.DoubleValue
0.001

@<SCITEGIC>MOL_PROPERTY
Tether
SciTegic.value.DoubleValue
0.000

@<TRIPOS>MOLECULE
guest-s21_confgen4.mol2 : confsearch ligand conformer 544
          22          21           1
SMALL
USER_CHARGES
 
@<TRIPOS>ATOM
       1    C1      18.604280   22.704309   22.251137 C.2        1 MOL1         0.6145
       2    O1      19.191935   23.394865   21.442283 O.co2      1 MOL1        -0.6735
       3    O2      18.112934   23.137137   23.274707 O.co2      1 MOL1        -0.6735
       4    C2      18.496276   21.208485   21.977170 C.3        1 MOL1        -0.1985
       5    H1      18.439828   21.064136   20.891521 H          1 MOL1         0.0740
       6    H2      17.549944   20.851799   22.401287 H          1 MOL1         0.0740
       7    C3      19.681787   20.402266   22.562604 C.3        1 MOL1        -0.1882
       8    H3      20.622347   20.779502   22.137646 H          1 MOL1         0.0742
       9    H4      19.732507   20.568404   23.647655 H          1 MOL1         0.0742
      10    C4      19.548859   18.891549   22.272063 C.3        1 MOL1        -0.1880
      11    H5      19.491744   18.737635   21.186607 H          1 MOL1         0.0742
      12    H6      18.608967   18.516815   22.699885 H          1 MOL1         0.0742
      13    C5      20.736568   18.091755   22.855108 C.3        1 MOL1        -0.1880
      14    H7      21.673558   18.429471   22.391496 H          1 MOL1         0.0742
      15    H8      20.823327   18.311777   23.927954 H          1 MOL1         0.0742
      16    C6      20.593949   16.562204   22.677781 C.3        1 MOL1        -0.1856
      17    H9      19.660792   16.219697   23.145987 H          1 MOL1         0.0742
      18    H10     21.412235   16.066950   23.218490 H          1 MOL1         0.0742
      19    C7      20.630019   16.111928   21.201244 C.3        1 MOL1        -0.2871
      20    H11     21.541096   16.469017   20.703690 H          1 MOL1         0.0754
      21    H12     19.762932   16.490230   20.645590 H          1 MOL1         0.0754
      22    H13     20.615342   15.016418   21.133697 H          1 MOL1         0.0754
@<TRIPOS>BOND
    1     1     2    1
    2     1     3    2
    3     1     4    1
    4     4     5    1
    5     4     6    1
    6     4     7    1
    7     7     8    1
    8     7     9    1
    9     7    10    1
   10    10    11    1
   11    10    12    1
   12    10    13    1
   13    13    14    1
   14    13    15    1
   15    13    16    1
   16    16    17    1
   17    16    18    1
   18    16    19    1
   19    19    20    1
   20    19    21    1
   21    19    22    1
@<TRIPOS>SUBSTRUCTURE
       1 MOL1            1 RESIDUE      1      MOL     
@<SCITEGIC>MOL_PROPERTY
VConf Rank
SciTegic.value.IntegerValue
544

@<SCITEGIC>MOL_PROPERTY
Conf_Id
SciTegic.value.IntegerValue
38

@<SCITEGIC>MOL_PROPERTY
Delta U+W
SciTegic.value.DoubleValue
-0.439

@<SCITEGIC>MOL_PROPERTY
U+W
SciTegic.value.DoubleValue
-53.598

@<SCITEGIC>MOL_PROPERTY
Grad RMS
SciTegic.value.DoubleValue
0.000000

@<SCITEGIC>MOL_PROPERTY
U
SciTegic.value.DoubleValue
6.751

@<SCITEGIC>MOL_PROPERTY
W
SciTegic.value.DoubleValue
-60.350

@<SCITEGIC>MOL_PROPERTY
W(PB)
SciTegic.value.DoubleValue
-62.659

@<SCITEGIC>MOL_PROPERTY
W(SA)
SciTegic.value.DoubleValue
2.309

@<SCITEGIC>MOL_PROPERTY
Valence
SciTegic.value.DoubleValue
7.602

@<SCITEGIC>MOL_PROPERTY
Coulomb
SciTegic.value.DoubleValue
-1.744

@<SCITEGIC>MOL_PROPERTY
VdW
SciTegic.value.DoubleValue
0.893

@<SCITEGIC>MOL_PROPERTY
VdW6
SciTegic.value.DoubleValue
-7.110

@<SCITEGIC>MOL_PROPERTY
VdW12
SciTegic.value.DoubleValue
8.004

@<SCITEGIC>MOL_PROPERTY
Bond
SciTegic.value.DoubleValue
0.131

@<SCITEGIC>MOL_PROPERTY
Angle
SciTegic.value.DoubleValue
2.489

@<SCITEGIC>MOL_PROPERTY
Pdih
SciTegic.value.DoubleValue
4.981

@<SCITEGIC>MOL_PROPERTY
Idih
SciTegic.value.DoubleValue
0.001

@<SCITEGIC>MOL_PROPERTY
Tether
SciTegic.value.DoubleValue
0.000

@<TRIPOS>MOLECULE
guest-s21_confgen4.mol2 : confsearch ligand conformer 545
          22          21           1
SMALL
USER_CHARGES
 
@<TRIPOS>ATOM
       1    C1      20.721637   15.909069   24.187318 C.2        1 MOL1         0.6145
       2    O1      20.828068   15.885182   25.397551 O.co2      1 MOL1        -0.6735
       3    O2      21.211620   15.074644   23.452347 O.co2      1 MOL1        -0.6735
       4    C2      19.949978   17.061917   23.555041 C.3        1 MOL1        -0.1985
       5    H1      19.158168   17.363289   24.251192 H          1 MOL1         0.0740
       6    H2      19.461462   16.679249   22.652059 H          1 MOL1         0.0740
       7    C3      20.855211   18.275055   23.216719 C.3        1 MOL1        -0.1882
       8    H3      21.401773   18.568727   24.123622 H          1 MOL1         0.0742
       9    H4      21.614268   17.973718   22.481653 H          1 MOL1         0.0742
      10    C4      20.075737   19.503822   22.690152 C.3        1 MOL1        -0.1880
      11    H5      20.777013   20.344797   22.617345 H          1 MOL1         0.0742
      12    H6      19.312301   19.797193   23.423477 H          1 MOL1         0.0742
      13    C5      19.412258   19.266855   21.311143 C.3        1 MOL1        -0.1880
      14    H7      20.175565   18.971752   20.578355 H          1 MOL1         0.0742
      15    H8      18.708453   18.428081   21.383222 H          1 MOL1         0.0742
      16    C6      18.637019   20.496679   20.783267 C.3        1 MOL1        -0.1856
      17    H9      17.880007   20.802148   21.518735 H          1 MOL1         0.0742
      18    H10     18.088458   20.203761   19.877439 H          1 MOL1         0.0742
      19    C7      19.547026   21.697186   20.443672 C.3        1 MOL1        -0.2871
      20    H11     20.025862   22.105339   21.342310 H          1 MOL1         0.0754
      21    H12     18.961419   22.504298   19.984811 H          1 MOL1         0.0754
      22    H13     20.333656   21.406075   19.735441 H          1 MOL1         0.0754
@<TRIPOS>BOND
    1     1     2    1
    2     1     3    2
    3     1     4    1
    4     4     5    1
    5     4     6    1
    6     4     7    1
    7     7     8    1
    8     7     9    1
    9     7    10    1
   10    10    11    1
   11    10    12    1
   12    10    13    1
   13    13    14    1
   14    13    15    1
   15    13    16    1
   16    16    17    1
   17    16    18    1
   18    16    19    1
   19    19    20    1
   20    19    21    1
   21    19    22    1
@<TRIPOS>SUBSTRUCTURE
       1 MOL1            1 RESIDUE      1      MOL     
@<SCITEGIC>MOL_PROPERTY
VConf Rank
SciTegic.value.IntegerValue
545

@<SCITEGIC>MOL_PROPERTY
Conf_Id
SciTegic.value.IntegerValue
60

@<SCITEGIC>MOL_PROPERTY
Delta U+W
SciTegic.value.DoubleValue
0.386

@<SCITEGIC>MOL_PROPERTY
U+W
SciTegic.value.DoubleValue
-52.773

@<SCITEGIC>MOL_PROPERTY
Grad RMS
SciTegic.value.DoubleValue
0.000000

@<SCITEGIC>MOL_PROPERTY
U
SciTegic.value.DoubleValue
7.689

@<SCITEGIC>MOL_PROPERTY
W
SciTegic.value.DoubleValue
-60.463

@<SCITEGIC>MOL_PROPERTY
W(PB)
SciTegic.value.DoubleValue
-62.772

@<SCITEGIC>MOL_PROPERTY
W(SA)
SciTegic.value.DoubleValue
2.309

@<SCITEGIC>MOL_PROPERTY
Valence
SciTegic.value.DoubleValue
8.197

@<SCITEGIC>MOL_PROPERTY
Coulomb
SciTegic.value.DoubleValue
-1.561

@<SCITEGIC>MOL_PROPERTY
VdW
SciTegic.value.DoubleValue
1.053

@<SCITEGIC>MOL_PROPERTY
VdW6
SciTegic.value.DoubleValue
-7.737

@<SCITEGIC>MOL_PROPERTY
VdW12
SciTegic.value.DoubleValue
8.790

@<SCITEGIC>MOL_PROPERTY
Bond
SciTegic.value.DoubleValue
0.181

@<SCITEGIC>MOL_PROPERTY
Angle
SciTegic.value.DoubleValue
2.780

@<SCITEGIC>MOL_PROPERTY
Pdih
SciTegic.value.DoubleValue
5.235

@<SCITEGIC>MOL_PROPERTY
Idih
SciTegic.value.DoubleValue
0.001

@<SCITEGIC>MOL_PROPERTY
Tether
SciTegic.value.DoubleValue
0.000

@<TRIPOS>MOLECULE
guest-s21_confgen4.mol2 : confsearch ligand conformer 546
          22          21           1
SMALL
USER_CHARGES
 
@<TRIPOS>ATOM
       1    C1      17.027422   16.437204   22.221772 C.2        1 MOL1         0.6145
       2    O1      17.299049   15.500195   22.946180 O.co2      1 MOL1        -0.6735
       3    O2      16.166313   16.397812   21.365326 O.co2      1 MOL1        -0.6735
       4    C2      17.826267   17.725939   22.380819 C.3        1 MOL1        -0.1985
       5    H1      18.086825   17.826896   23.440243 H          1 MOL1         0.0740
       6    H2      17.170080   18.566415   22.125018 H          1 MOL1         0.0740
       7    C3      19.100804   17.754103   21.497430 C.3        1 MOL1        -0.1882
       8    H3      19.772803   16.937456   21.795422 H          1 MOL1         0.0742
       9    H4      18.811001   17.552574   20.456830 H          1 MOL1         0.0742
      10    C4      19.860738   19.101256   21.546418 C.3        1 MOL1        -0.1880
      11    H5      19.183956   19.916277   21.255943 H          1 MOL1         0.0742
      12    H6      20.654473   19.070802   20.789196 H          1 MOL1         0.0742
      13    C5      20.482791   19.406778   22.931237 C.3        1 MOL1        -0.1880
      14    H7      19.689787   19.440654   23.688915 H          1 MOL1         0.0742
      15    H8      21.158092   18.590767   23.222436 H          1 MOL1         0.0742
      16    C6      21.246046   20.751146   22.978429 C.3        1 MOL1        -0.1856
      17    H9      21.534497   20.954906   24.018873 H          1 MOL1         0.0742
      18    H10     20.576980   21.568794   22.676608 H          1 MOL1         0.0742
      19    C7      22.516600   20.767393   22.100885 C.3        1 MOL1        -0.2871
      20    H11     23.185220   19.936804   22.362025 H          1 MOL1         0.0754
      21    H12     23.069965   21.704381   22.244964 H          1 MOL1         0.0754
      22    H13     22.269745   20.689328   21.034868 H          1 MOL1         0.0754
@<TRIPOS>BOND
    1     1     2    1
    2     1     3    2
    3     1     4    1
    4     4     5    1
    5     4     6    1
    6     4     7    1
    7     7     8    1
    8     7     9    1
    9     7    10    1
   10    10    11    1
   11    10    12    1
   12    10    13    1
   13    13    14    1
   14    13    15    1
   15    13    16    1
   16    16    17    1
   17    16    18    1
   18    16    19    1
   19    19    20    1
   20    19    21    1
   21    19    22    1
@<TRIPOS>SUBSTRUCTURE
       1 MOL1            1 RESIDUE      1      MOL     
@<SCITEGIC>MOL_PROPERTY
VConf Rank
SciTegic.value.IntegerValue
546

@<SCITEGIC>MOL_PROPERTY
Conf_Id
SciTegic.value.IntegerValue
28

@<SCITEGIC>MOL_PROPERTY
Delta U+W
SciTegic.value.DoubleValue
0.351

@<SCITEGIC>MOL_PROPERTY
U+W
SciTegic.value.DoubleValue
-52.808

@<SCITEGIC>MOL_PROPERTY
Grad RMS
SciTegic.value.DoubleValue
0.000000

@<SCITEGIC>MOL_PROPERTY
U
SciTegic.value.DoubleValue
7.689

@<SCITEGIC>MOL_PROPERTY
W
SciTegic.value.DoubleValue
-60.498

@<SCITEGIC>MOL_PROPERTY
W(PB)
SciTegic.value.DoubleValue
-62.768

@<SCITEGIC>MOL_PROPERTY
W(SA)
SciTegic.value.DoubleValue
2.270

@<SCITEGIC>MOL_PROPERTY
Valence
SciTegic.value.DoubleValue
8.197

@<SCITEGIC>MOL_PROPERTY
Coulomb
SciTegic.value.DoubleValue
-1.561

@<SCITEGIC>MOL_PROPERTY
VdW
SciTegic.value.DoubleValue
1.053

@<SCITEGIC>MOL_PROPERTY
VdW6
SciTegic.value.DoubleValue
-7.737

@<SCITEGIC>MOL_PROPERTY
VdW12
SciTegic.value.DoubleValue
8.791

@<SCITEGIC>MOL_PROPERTY
Bond
SciTegic.value.DoubleValue
0.181

@<SCITEGIC>MOL_PROPERTY
Angle
SciTegic.value.DoubleValue
2.780

@<SCITEGIC>MOL_PROPERTY
Pdih
SciTegic.value.DoubleValue
5.235

@<SCITEGIC>MOL_PROPERTY
Idih
SciTegic.value.DoubleValue
0.001

@<SCITEGIC>MOL_PROPERTY
Tether
SciTegic.value.DoubleValue
0.000

@<TRIPOS>MOLECULE
guest-s21_confgen4.mol2 : confsearch ligand conformer 547
          22          21           1
SMALL
USER_CHARGES
 
@<TRIPOS>ATOM
       1    C1      21.260026   22.243847   23.216261 C.2        1 MOL1         0.6145
       2    O1      22.456978   22.410851   23.090219 O.co2      1 MOL1        -0.6735
       3    O2      20.428405   23.074110   22.907188 O.co2      1 MOL1        -0.6735
       4    C2      20.773922   20.911063   23.774573 C.3        1 MOL1        -0.1985
       5    H1      19.850210   21.093634   24.336776 H          1 MOL1         0.0740
       6    H2      21.522279   20.548039   24.489271 H          1 MOL1         0.0740
       7    C3      20.527640   19.851151   22.672658 C.3        1 MOL1        -0.1882
       8    H3      19.791437   20.245329   21.959848 H          1 MOL1         0.0742
       9    H4      21.458987   19.686260   22.113453 H          1 MOL1         0.0742
      10    C4      20.031242   18.512213   23.265865 C.3        1 MOL1        -0.1880
      11    H5      19.072892   18.667137   23.780212 H          1 MOL1         0.0742
      12    H6      20.743746   18.174949   24.031080 H          1 MOL1         0.0742
      13    C5      19.877566   17.390371   22.211628 C.3        1 MOL1        -0.1880
      14    H7      20.836753   17.232330   21.699852 H          1 MOL1         0.0742
      15    H8      19.645866   16.451827   22.733526 H          1 MOL1         0.0742
      16    C6      18.771183   17.670766   21.169713 C.3        1 MOL1        -0.1856
      17    H9      19.022235   18.563390   20.581874 H          1 MOL1         0.0742
      18    H10     17.822932   17.880927   21.683384 H          1 MOL1         0.0742
      19    C7      18.581066   16.477301   20.212002 C.3        1 MOL1        -0.2871
      20    H11     18.290609   15.573201   20.762996 H          1 MOL1         0.0754
      21    H12     19.507928   16.262275   19.664210 H          1 MOL1         0.0754
      22    H13     17.794994   16.692922   19.476701 H          1 MOL1         0.0754
@<TRIPOS>BOND
    1     1     2    1
    2     1     3    2
    3     1     4    1
    4     4     5    1
    5     4     6    1
    6     4     7    1
    7     7     8    1
    8     7     9    1
    9     7    10    1
   10    10    11    1
   11    10    12    1
   12    10    13    1
   13    13    14    1
   14    13    15    1
   15    13    16    1
   16    16    17    1
   17    16    18    1
   18    16    19    1
   19    19    20    1
   20    19    21    1
   21    19    22    1
@<TRIPOS>SUBSTRUCTURE
       1 MOL1            1 RESIDUE      1      MOL     
@<SCITEGIC>MOL_PROPERTY
VConf Rank
SciTegic.value.IntegerValue
547

@<SCITEGIC>MOL_PROPERTY
Conf_Id
SciTegic.value.IntegerValue
50

@<SCITEGIC>MOL_PROPERTY
Delta U+W
SciTegic.value.DoubleValue
-0.486

@<SCITEGIC>MOL_PROPERTY
U+W
SciTegic.value.DoubleValue
-53.646

@<SCITEGIC>MOL_PROPERTY
Grad RMS
SciTegic.value.DoubleValue
0.000000

@<SCITEGIC>MOL_PROPERTY
U
SciTegic.value.DoubleValue
7.026

@<SCITEGIC>MOL_PROPERTY
W
SciTegic.value.DoubleValue
-60.672

@<SCITEGIC>MOL_PROPERTY
W(PB)
SciTegic.value.DoubleValue
-62.964

@<SCITEGIC>MOL_PROPERTY
W(SA)
SciTegic.value.DoubleValue
2.292

@<SCITEGIC>MOL_PROPERTY
Valence
SciTegic.value.DoubleValue
7.637

@<SCITEGIC>MOL_PROPERTY
Coulomb
SciTegic.value.DoubleValue
-1.488

@<SCITEGIC>MOL_PROPERTY
VdW
SciTegic.value.DoubleValue
0.877

@<SCITEGIC>MOL_PROPERTY
VdW6
SciTegic.value.DoubleValue
-7.165

@<SCITEGIC>MOL_PROPERTY
VdW12
SciTegic.value.DoubleValue
8.043

@<SCITEGIC>MOL_PROPERTY
Bond
SciTegic.value.DoubleValue
0.134

@<SCITEGIC>MOL_PROPERTY
Angle
SciTegic.value.DoubleValue
2.513

@<SCITEGIC>MOL_PROPERTY
Pdih
SciTegic.value.DoubleValue
4.990

@<SCITEGIC>MOL_PROPERTY
Idih
SciTegic.value.DoubleValue
0.001

@<SCITEGIC>MOL_PROPERTY
Tether
SciTegic.value.DoubleValue
0.000

@<TRIPOS>MOLECULE
guest-s21_confgen4.mol2 : confsearch ligand conformer 548
          22          21           1
SMALL
USER_CHARGES
 
@<TRIPOS>ATOM
       1    C1      20.275934   17.441295   25.604668 C.2        1 MOL1         0.6145
       2    O1      20.068703   16.246927   25.688404 O.co2      1 MOL1        -0.6735
       3    O2      19.930449   18.245064   26.447906 O.co2      1 MOL1        -0.6735
       4    C2      20.990936   17.962625   24.363171 C.3        1 MOL1        -0.1985
       5    H1      21.696777   17.192990   24.028408 H          1 MOL1         0.0740
       6    H2      21.581306   18.840132   24.653160 H          1 MOL1         0.0740
       7    C3      20.016164   18.329889   23.217207 C.3        1 MOL1        -0.1882
       8    H3      19.426478   17.443700   22.944730 H          1 MOL1         0.0742
       9    H4      19.308501   19.085773   23.582339 H          1 MOL1         0.0742
      10    C4      20.767081   18.859478   21.973533 C.3        1 MOL1        -0.1880
      11    H5      21.522296   18.121023   21.671380 H          1 MOL1         0.0742
      12    H6      21.314773   19.775737   22.233322 H          1 MOL1         0.0742
      13    C5      19.840860   19.134944   20.765313 C.3        1 MOL1        -0.1880
      14    H7      20.466288   19.383801   19.897075 H          1 MOL1         0.0742
      15    H8      19.295918   18.217887   20.502681 H          1 MOL1         0.0742
      16    C6      18.838060   20.285728   21.006925 C.3        1 MOL1        -0.1856
      17    H9      19.379052   21.189019   21.320931 H          1 MOL1         0.0742
      18    H10     18.150650   20.023945   21.821969 H          1 MOL1         0.0742
      19    C7      18.016985   20.595530   19.739023 C.3        1 MOL1        -0.2871
      20    H11     17.443739   19.715876   19.418114 H          1 MOL1         0.0754
      21    H12     18.671110   20.899387   18.911286 H          1 MOL1         0.0754
      22    H13     17.307810   21.412007   19.927450 H          1 MOL1         0.0754
@<TRIPOS>BOND
    1     1     2    1
    2     1     3    2
    3     1     4    1
    4     4     5    1
    5     4     6    1
    6     4     7    1
    7     7     8    1
    8     7     9    1
    9     7    10    1
   10    10    11    1
   11    10    12    1
   12    10    13    1
   13    13    14    1
   14    13    15    1
   15    13    16    1
   16    16    17    1
   17    16    18    1
   18    16    19    1
   19    19    20    1
   20    19    21    1
   21    19    22    1
@<TRIPOS>SUBSTRUCTURE
       1 MOL1            1 RESIDUE      1      MOL     
@<SCITEGIC>MOL_PROPERTY
VConf Rank
SciTegic.value.IntegerValue
548

@<SCITEGIC>MOL_PROPERTY
Conf_Id
SciTegic.value.IntegerValue
51

@<SCITEGIC>MOL_PROPERTY
Delta U+W
SciTegic.value.DoubleValue
-0.517

@<SCITEGIC>MOL_PROPERTY
U+W
SciTegic.value.DoubleValue
-53.677

@<SCITEGIC>MOL_PROPERTY
Grad RMS
SciTegic.value.DoubleValue
0.000000

@<SCITEGIC>MOL_PROPERTY
U
SciTegic.value.DoubleValue
7.026

@<SCITEGIC>MOL_PROPERTY
W
SciTegic.value.DoubleValue
-60.703

@<SCITEGIC>MOL_PROPERTY
W(PB)
SciTegic.value.DoubleValue
-63.007

@<SCITEGIC>MOL_PROPERTY
W(SA)
SciTegic.value.DoubleValue
2.304

@<SCITEGIC>MOL_PROPERTY
Valence
SciTegic.value.DoubleValue
7.638

@<SCITEGIC>MOL_PROPERTY
Coulomb
SciTegic.value.DoubleValue
-1.488

@<SCITEGIC>MOL_PROPERTY
VdW
SciTegic.value.DoubleValue
0.877

@<SCITEGIC>MOL_PROPERTY
VdW6
SciTegic.value.DoubleValue
-7.165

@<SCITEGIC>MOL_PROPERTY
VdW12
SciTegic.value.DoubleValue
8.042

@<SCITEGIC>MOL_PROPERTY
Bond
SciTegic.value.DoubleValue
0.134

@<SCITEGIC>MOL_PROPERTY
Angle
SciTegic.value.DoubleValue
2.513

@<SCITEGIC>MOL_PROPERTY
Pdih
SciTegic.value.DoubleValue
4.990

@<SCITEGIC>MOL_PROPERTY
Idih
SciTegic.value.DoubleValue
0.001

@<SCITEGIC>MOL_PROPERTY
Tether
SciTegic.value.DoubleValue
0.000

@<TRIPOS>MOLECULE
guest-s21_confgen4.mol2 : confsearch ligand conformer 549
          22          21           1
SMALL
USER_CHARGES
 
@<TRIPOS>ATOM
       1    C1      16.886940   17.293949   22.459618 C.2        1 MOL1         0.6145
       2    O1      15.980327   17.992079   22.050268 O.co2      1 MOL1        -0.6735
       3    O2      17.207119   16.239268   21.947831 O.co2      1 MOL1        -0.6735
       4    C2      17.651504   17.759988   23.695491 C.3        1 MOL1        -0.1985
       5    H1      18.173771   16.898786   24.129626 H          1 MOL1         0.0740
       6    H2      16.911216   18.087862   24.434757 H          1 MOL1         0.0740
       7    C3      18.653660   18.911069   23.420376 C.3        1 MOL1        -0.1882
       8    H3      18.121125   19.755020   22.960152 H          1 MOL1         0.0742
       9    H4      19.052271   19.273024   24.377790 H          1 MOL1         0.0742
      10    C4      19.825718   18.474376   22.513090 C.3        1 MOL1        -0.1880
      11    H5      19.435815   18.126820   21.546350 H          1 MOL1         0.0742
      12    H6      20.346562   17.622345   22.971107 H          1 MOL1         0.0742
      13    C5      20.826765   19.625993   22.278282 C.3        1 MOL1        -0.1880
      14    H7      20.305185   20.477608   21.820228 H          1 MOL1         0.0742
      15    H8      21.220283   19.973399   23.243430 H          1 MOL1         0.0742
      16    C6      21.997127   19.190861   21.371662 C.3        1 MOL1        -0.1856
      17    H9      21.607352   18.844332   20.404453 H          1 MOL1         0.0742
      18    H10     22.522359   18.340091   21.827496 H          1 MOL1         0.0742
      19    C7      22.994329   20.343584   21.138909 C.3        1 MOL1        -0.2871
      20    H11     22.501971   21.197058   20.654588 H          1 MOL1         0.0754
      21    H12     23.819360   20.016834   20.492657 H          1 MOL1         0.0754
      22    H13     23.423874   20.689080   22.088393 H          1 MOL1         0.0754
@<TRIPOS>BOND
    1     1     2    1
    2     1     3    2
    3     1     4    1
    4     4     5    1
    5     4     6    1
    6     4     7    1
    7     7     8    1
    8     7     9    1
    9     7    10    1
   10    10    11    1
   11    10    12    1
   12    10    13    1
   13    13    14    1
   14    13    15    1
   15    13    16    1
   16    16    17    1
   17    16    18    1
   18    16    19    1
   19    19    20    1
   20    19    21    1
   21    19    22    1
@<TRIPOS>SUBSTRUCTURE
       1 MOL1            1 RESIDUE      1      MOL     
@<SCITEGIC>MOL_PROPERTY
VConf Rank
SciTegic.value.IntegerValue
549

@<SCITEGIC>MOL_PROPERTY
Conf_Id
SciTegic.value.IntegerValue
43

@<SCITEGIC>MOL_PROPERTY
Delta U+W
SciTegic.value.DoubleValue
-0.129

@<SCITEGIC>MOL_PROPERTY
U+W
SciTegic.value.DoubleValue
-53.289

@<SCITEGIC>MOL_PROPERTY
Grad RMS
SciTegic.value.DoubleValue
0.000000

@<SCITEGIC>MOL_PROPERTY
U
SciTegic.value.DoubleValue
7.937

@<SCITEGIC>MOL_PROPERTY
W
SciTegic.value.DoubleValue
-61.225

@<SCITEGIC>MOL_PROPERTY
W(PB)
SciTegic.value.DoubleValue
-63.523

@<SCITEGIC>MOL_PROPERTY
W(SA)
SciTegic.value.DoubleValue
2.297

@<SCITEGIC>MOL_PROPERTY
Valence
SciTegic.value.DoubleValue
7.358

@<SCITEGIC>MOL_PROPERTY
Coulomb
SciTegic.value.DoubleValue
-0.022

@<SCITEGIC>MOL_PROPERTY
VdW
SciTegic.value.DoubleValue
0.601

@<SCITEGIC>MOL_PROPERTY
VdW6
SciTegic.value.DoubleValue
-7.363

@<SCITEGIC>MOL_PROPERTY
VdW12
SciTegic.value.DoubleValue
7.964

@<SCITEGIC>MOL_PROPERTY
Bond
SciTegic.value.DoubleValue
0.121

@<SCITEGIC>MOL_PROPERTY
Angle
SciTegic.value.DoubleValue
2.425

@<SCITEGIC>MOL_PROPERTY
Pdih
SciTegic.value.DoubleValue
4.811

@<SCITEGIC>MOL_PROPERTY
Idih
SciTegic.value.DoubleValue
0.000

@<SCITEGIC>MOL_PROPERTY
Tether
SciTegic.value.DoubleValue
0.000

@<TRIPOS>MOLECULE
guest-s21_confgen4.mol2 : confsearch ligand conformer 550
          22          21           1
SMALL
USER_CHARGES
 
@<TRIPOS>ATOM
       1    C1      22.214564   16.776535   21.699512 C.2        1 MOL1         0.6145
       2    O1      22.893652   17.070534   20.735506 O.co2      1 MOL1        -0.6735
       3    O2      21.550818   15.761011   21.769824 O.co2      1 MOL1        -0.6735
       4    C2      22.211117   17.727238   22.893364 C.3        1 MOL1        -0.1985
       5    H1      23.252244   18.007278   23.092542 H          1 MOL1         0.0740
       6    H2      21.855101   17.180810   23.775165 H          1 MOL1         0.0740
       7    C3      21.362597   19.007315   22.677917 C.3        1 MOL1        -0.1882
       8    H3      21.527701   19.690587   23.521967 H          1 MOL1         0.0742
       9    H4      21.712656   19.528447   21.775956 H          1 MOL1         0.0742
      10    C4      19.852207   18.705350   22.554922 C.3        1 MOL1        -0.1880
      11    H5      19.510129   18.172925   23.452987 H          1 MOL1         0.0742
      12    H6      19.676961   18.035556   21.701651 H          1 MOL1         0.0742
      13    C5      19.024203   19.995564   22.372672 C.3        1 MOL1        -0.1880
      14    H7      19.195538   20.665840   23.226155 H          1 MOL1         0.0742
      15    H8      19.366838   20.527379   21.474406 H          1 MOL1         0.0742
      16    C6      17.515807   19.694737   22.248998 C.3        1 MOL1        -0.1856
      17    H9      17.169052   19.164168   23.146617 H          1 MOL1         0.0742
      18    H10     17.340349   19.025820   21.395026 H          1 MOL1         0.0742
      19    C7      16.692263   20.985407   22.066507 C.3        1 MOL1        -0.2871
      20    H11     16.824579   21.660086   22.922484 H          1 MOL1         0.0754
      21    H12     15.622852   20.753004   21.980283 H          1 MOL1         0.0754
      22    H13     16.997159   21.520645   21.157684 H          1 MOL1         0.0754
@<TRIPOS>BOND
    1     1     2    1
    2     1     3    2
    3     1     4    1
    4     4     5    1
    5     4     6    1
    6     4     7    1
    7     7     8    1
    8     7     9    1
    9     7    10    1
   10    10    11    1
   11    10    12    1
   12    10    13    1
   13    13    14    1
   14    13    15    1
   15    13    16    1
   16    16    17    1
   17    16    18    1
   18    16    19    1
   19    19    20    1
   20    19    21    1
   21    19    22    1
@<TRIPOS>SUBSTRUCTURE
       1 MOL1            1 RESIDUE      1      MOL     
@<SCITEGIC>MOL_PROPERTY
VConf Rank
SciTegic.value.IntegerValue
550

@<SCITEGIC>MOL_PROPERTY
Conf_Id
SciTegic.value.IntegerValue
44

@<SCITEGIC>MOL_PROPERTY
Delta U+W
SciTegic.value.DoubleValue
-0.155

@<SCITEGIC>MOL_PROPERTY
U+W
SciTegic.value.DoubleValue
-53.314

@<SCITEGIC>MOL_PROPERTY
Grad RMS
SciTegic.value.DoubleValue
0.000000

@<SCITEGIC>MOL_PROPERTY
U
SciTegic.value.DoubleValue
7.937

@<SCITEGIC>MOL_PROPERTY
W
SciTegic.value.DoubleValue
-61.252

@<SCITEGIC>MOL_PROPERTY
W(PB)
SciTegic.value.DoubleValue
-63.556

@<SCITEGIC>MOL_PROPERTY
W(SA)
SciTegic.value.DoubleValue
2.304

@<SCITEGIC>MOL_PROPERTY
Valence
SciTegic.value.DoubleValue
7.358

@<SCITEGIC>MOL_PROPERTY
Coulomb
SciTegic.value.DoubleValue
-0.021

@<SCITEGIC>MOL_PROPERTY
VdW
SciTegic.value.DoubleValue
0.600

@<SCITEGIC>MOL_PROPERTY
VdW6
SciTegic.value.DoubleValue
-7.363

@<SCITEGIC>MOL_PROPERTY
VdW12
SciTegic.value.DoubleValue
7.964

@<SCITEGIC>MOL_PROPERTY
Bond
SciTegic.value.DoubleValue
0.121

@<SCITEGIC>MOL_PROPERTY
Angle
SciTegic.value.DoubleValue
2.425

@<SCITEGIC>MOL_PROPERTY
Pdih
SciTegic.value.DoubleValue
4.811

@<SCITEGIC>MOL_PROPERTY
Idih
SciTegic.value.DoubleValue
0.001

@<SCITEGIC>MOL_PROPERTY
Tether
SciTegic.value.DoubleValue
0.000

@<TRIPOS>MOLECULE
guest-s21_confgen4.mol2 : confsearch ligand conformer 551
          22          21           1
SMALL
USER_CHARGES
 
@<TRIPOS>ATOM
       1    C1      22.427665   18.652495   24.580811 C.2        1 MOL1         0.6145
       2    O1      23.501330   18.701693   24.013583 O.co2      1 MOL1        -0.6735
       3    O2      22.121027   17.775752   25.364495 O.co2      1 MOL1        -0.6735
       4    C2      21.418092   19.763879   24.307136 C.3        1 MOL1        -0.1985
       5    H1      21.958031   20.716560   24.360956 H          1 MOL1         0.0740
       6    H2      20.677974   19.772416   25.116482 H          1 MOL1         0.0740
       7    C3      20.707560   19.648915   22.933253 C.3        1 MOL1        -0.1882
       8    H3      20.126411   20.564427   22.765124 H          1 MOL1         0.0742
       9    H4      21.462416   19.600881   22.136204 H          1 MOL1         0.0742
      10    C4      19.775356   18.416452   22.848148 C.3        1 MOL1        -0.1880
      11    H5      18.995797   18.487334   23.618903 H          1 MOL1         0.0742
      12    H6      20.353768   17.510670   23.076160 H          1 MOL1         0.0742
      13    C5      19.117031   18.235818   21.459694 C.3        1 MOL1        -0.1880
      14    H7      19.896964   18.165199   20.689218 H          1 MOL1         0.0742
      15    H8      18.583915   17.275294   21.450458 H          1 MOL1         0.0742
      16    C6      18.124395   19.362853   21.095151 C.3        1 MOL1        -0.1856
      17    H9      18.652094   20.322543   21.019358 H          1 MOL1         0.0742
      18    H10     17.376054   19.469904   21.892471 H          1 MOL1         0.0742
      19    C7      17.410808   19.076954   19.758440 C.3        1 MOL1        -0.2871
      20    H11     18.134826   18.991937   18.937493 H          1 MOL1         0.0754
      21    H12     16.712343   19.887153   19.511891 H          1 MOL1         0.0754
      22    H13     16.839201   18.141025   19.810014 H          1 MOL1         0.0754
@<TRIPOS>BOND
    1     1     2    1
    2     1     3    2
    3     1     4    1
    4     4     5    1
    5     4     6    1
    6     4     7    1
    7     7     8    1
    8     7     9    1
    9     7    10    1
   10    10    11    1
   11    10    12    1
   12    10    13    1
   13    13    14    1
   14    13    15    1
   15    13    16    1
   16    16    17    1
   17    16    18    1
   18    16    19    1
   19    19    20    1
   20    19    21    1
   21    19    22    1
@<TRIPOS>SUBSTRUCTURE
       1 MOL1            1 RESIDUE      1      MOL     
@<SCITEGIC>MOL_PROPERTY
VConf Rank
SciTegic.value.IntegerValue
551

@<SCITEGIC>MOL_PROPERTY
Conf_Id
SciTegic.value.IntegerValue
53

@<SCITEGIC>MOL_PROPERTY
Delta U+W
SciTegic.value.DoubleValue
0.723

@<SCITEGIC>MOL_PROPERTY
U+W
SciTegic.value.DoubleValue
-52.436

@<SCITEGIC>MOL_PROPERTY
Grad RMS
SciTegic.value.DoubleValue
0.000000

@<SCITEGIC>MOL_PROPERTY
U
SciTegic.value.DoubleValue
8.587

@<SCITEGIC>MOL_PROPERTY
W
SciTegic.value.DoubleValue
-61.022

@<SCITEGIC>MOL_PROPERTY
W(PB)
SciTegic.value.DoubleValue
-63.285

@<SCITEGIC>MOL_PROPERTY
W(SA)
SciTegic.value.DoubleValue
2.263

@<SCITEGIC>MOL_PROPERTY
Valence
SciTegic.value.DoubleValue
7.933

@<SCITEGIC>MOL_PROPERTY
Coulomb
SciTegic.value.DoubleValue
-0.124

@<SCITEGIC>MOL_PROPERTY
VdW
SciTegic.value.DoubleValue
0.778

@<SCITEGIC>MOL_PROPERTY
VdW6
SciTegic.value.DoubleValue
-7.981

@<SCITEGIC>MOL_PROPERTY
VdW12
SciTegic.value.DoubleValue
8.759

@<SCITEGIC>MOL_PROPERTY
Bond
SciTegic.value.DoubleValue
0.160

@<SCITEGIC>MOL_PROPERTY
Angle
SciTegic.value.DoubleValue
2.698

@<SCITEGIC>MOL_PROPERTY
Pdih
SciTegic.value.DoubleValue
5.074

@<SCITEGIC>MOL_PROPERTY
Idih
SciTegic.value.DoubleValue
0.001

@<SCITEGIC>MOL_PROPERTY
Tether
SciTegic.value.DoubleValue
0.000

@<TRIPOS>MOLECULE
guest-s21_confgen4.mol2 : confsearch ligand conformer 552
          22          21           1
SMALL
USER_CHARGES
 
@<TRIPOS>ATOM
       1    C1      17.313026   21.264261   22.260164 C.2        1 MOL1         0.6145
       2    O1      17.724955   22.267186   21.711505 O.co2      1 MOL1        -0.6735
       3    O2      16.164437   21.124102   22.631217 O.co2      1 MOL1        -0.6735
       4    C2      18.284880   20.109549   22.474965 C.3        1 MOL1        -0.1985
       5    H1      17.985184   19.576356   23.385002 H          1 MOL1         0.0740
       6    H2      19.276212   20.540249   22.655209 H          1 MOL1         0.0740
       7    C3      18.332383   19.133433   21.272436 C.3        1 MOL1        -0.1882
       8    H3      17.306257   18.825000   21.028801 H          1 MOL1         0.0742
       9    H4      18.710837   19.666419   20.389287 H          1 MOL1         0.0742
      10    C4      19.183036   17.861420   21.515411 C.3        1 MOL1        -0.1880
      11    H5      19.100071   17.232150   20.618705 H          1 MOL1         0.0742
      12    H6      18.752471   17.270333   22.335281 H          1 MOL1         0.0742
      13    C5      20.686401   18.130487   21.778483 C.3        1 MOL1        -0.1880
      14    H7      21.271088   17.328477   21.307405 H          1 MOL1         0.0742
      15    H8      20.994836   19.062870   21.286048 H          1 MOL1         0.0742
      16    C6      21.048403   18.169523   23.281209 C.3        1 MOL1        -0.1856
      17    H9      20.786744   17.209531   23.747196 H          1 MOL1         0.0742
      18    H10     20.464258   18.939253   23.799530 H          1 MOL1         0.0742
      19    C7      22.550424   18.445308   23.493821 C.3        1 MOL1        -0.2871
      20    H11     23.163868   17.667699   23.020173 H          1 MOL1         0.0754
      21    H12     22.792749   18.462975   24.564335 H          1 MOL1         0.0754
      22    H13     22.835466   19.415287   23.065742 H          1 MOL1         0.0754
@<TRIPOS>BOND
    1     1     2    1
    2     1     3    2
    3     1     4    1
    4     4     5    1
    5     4     6    1
    6     4     7    1
    7     7     8    1
    8     7     9    1
    9     7    10    1
   10    10    11    1
   11    10    12    1
   12    10    13    1
   13    13    14    1
   14    13    15    1
   15    13    16    1
   16    16    17    1
   17    16    18    1
   18    16    19    1
   19    19    20    1
   20    19    21    1
   21    19    22    1
@<TRIPOS>SUBSTRUCTURE
       1 MOL1            1 RESIDUE      1      MOL     
@<SCITEGIC>MOL_PROPERTY
VConf Rank
SciTegic.value.IntegerValue
552

@<SCITEGIC>MOL_PROPERTY
Conf_Id
SciTegic.value.IntegerValue
5

@<SCITEGIC>MOL_PROPERTY
Delta U+W
SciTegic.value.DoubleValue
2.167

@<SCITEGIC>MOL_PROPERTY
U+W
SciTegic.value.DoubleValue
-50.993

@<SCITEGIC>MOL_PROPERTY
Grad RMS
SciTegic.value.DoubleValue
0.000000

@<SCITEGIC>MOL_PROPERTY
U
SciTegic.value.DoubleValue
10.045

@<SCITEGIC>MOL_PROPERTY
W
SciTegic.value.DoubleValue
-61.037

@<SCITEGIC>MOL_PROPERTY
W(PB)
SciTegic.value.DoubleValue
-63.303

@<SCITEGIC>MOL_PROPERTY
W(SA)
SciTegic.value.DoubleValue
2.266

@<SCITEGIC>MOL_PROPERTY
Valence
SciTegic.value.DoubleValue
10.100

@<SCITEGIC>MOL_PROPERTY
Coulomb
SciTegic.value.DoubleValue
-0.883

@<SCITEGIC>MOL_PROPERTY
VdW
SciTegic.value.DoubleValue
0.828

@<SCITEGIC>MOL_PROPERTY
VdW6
SciTegic.value.DoubleValue
-8.177

@<SCITEGIC>MOL_PROPERTY
VdW12
SciTegic.value.DoubleValue
9.005

@<SCITEGIC>MOL_PROPERTY
Bond
SciTegic.value.DoubleValue
0.182

@<SCITEGIC>MOL_PROPERTY
Angle
SciTegic.value.DoubleValue
2.988

@<SCITEGIC>MOL_PROPERTY
Pdih
SciTegic.value.DoubleValue
6.930

@<SCITEGIC>MOL_PROPERTY
Idih
SciTegic.value.DoubleValue
0.001

@<SCITEGIC>MOL_PROPERTY
Tether
SciTegic.value.DoubleValue
0.000

@<TRIPOS>MOLECULE
guest-s21_confgen4.mol2 : confsearch ligand conformer 553
          22          21           1
SMALL
USER_CHARGES
 
@<TRIPOS>ATOM
       1    C1      22.898385   20.226731   21.821283 C.2        1 MOL1         0.6145
       2    O1      23.210692   20.049421   20.660424 O.co2      1 MOL1        -0.6735
       3    O2      23.632121   20.736607   22.644837 O.co2      1 MOL1        -0.6735
       4    C2      21.518769   19.763422   22.275161 C.3        1 MOL1        -0.1985
       5    H1      20.831521   19.894052   21.431742 H          1 MOL1         0.0740
       6    H2      21.183980   20.427524   23.080870 H          1 MOL1         0.0740
       7    C3      21.508214   18.290125   22.755189 C.3        1 MOL1        -0.1882
       8    H3      21.768489   17.633995   21.913166 H          1 MOL1         0.0742
       9    H4      22.301499   18.158300   23.504017 H          1 MOL1         0.0742
      10    C4      20.165251   17.830185   23.376138 C.3        1 MOL1        -0.1880
      11    H5      19.945979   18.417194   24.278521 H          1 MOL1         0.0742
      12    H6      20.297078   16.794740   23.718808 H          1 MOL1         0.0742
      13    C5      18.958453   17.866795   22.404537 C.3        1 MOL1        -0.1880
      14    H7      19.302664   17.733020   21.369846 H          1 MOL1         0.0742
      15    H8      18.309065   17.008168   22.623737 H          1 MOL1         0.0742
      16    C6      18.110685   19.153945   22.528198 C.3        1 MOL1        -0.1856
      17    H9      18.727558   20.041959   22.345810 H          1 MOL1         0.0742
      18    H10     17.726275   19.243574   23.553572 H          1 MOL1         0.0742
      19    C7      16.927072   19.148328   21.540089 C.3        1 MOL1        -0.2871
      20    H11     17.282434   19.091979   20.502833 H          1 MOL1         0.0754
      21    H12     16.331298   20.064352   21.644906 H          1 MOL1         0.0754
      22    H13     16.265990   18.291158   21.723290 H          1 MOL1         0.0754
@<TRIPOS>BOND
    1     1     2    1
    2     1     3    2
    3     1     4    1
    4     4     5    1
    5     4     6    1
    6     4     7    1
    7     7     8    1
    8     7     9    1
    9     7    10    1
   10    10    11    1
   11    10    12    1
   12    10    13    1
   13    13    14    1
   14    13    15    1
   15    13    16    1
   16    16    17    1
   17    16    18    1
   18    16    19    1
   19    19    20    1
   20    19    21    1
   21    19    22    1
@<TRIPOS>SUBSTRUCTURE
       1 MOL1            1 RESIDUE      1      MOL     
@<SCITEGIC>MOL_PROPERTY
VConf Rank
SciTegic.value.IntegerValue
553

@<SCITEGIC>MOL_PROPERTY
Conf_Id
SciTegic.value.IntegerValue
6

@<SCITEGIC>MOL_PROPERTY
Delta U+W
SciTegic.value.DoubleValue
2.118

@<SCITEGIC>MOL_PROPERTY
U+W
SciTegic.value.DoubleValue
-51.042

@<SCITEGIC>MOL_PROPERTY
Grad RMS
SciTegic.value.DoubleValue
0.000000

@<SCITEGIC>MOL_PROPERTY
U
SciTegic.value.DoubleValue
10.045

@<SCITEGIC>MOL_PROPERTY
W
SciTegic.value.DoubleValue
-61.086

@<SCITEGIC>MOL_PROPERTY
W(PB)
SciTegic.value.DoubleValue
-63.356

@<SCITEGIC>MOL_PROPERTY
W(SA)
SciTegic.value.DoubleValue
2.270

@<SCITEGIC>MOL_PROPERTY
Valence
SciTegic.value.DoubleValue
10.100

@<SCITEGIC>MOL_PROPERTY
Coulomb
SciTegic.value.DoubleValue
-0.883

@<SCITEGIC>MOL_PROPERTY
VdW
SciTegic.value.DoubleValue
0.828

@<SCITEGIC>MOL_PROPERTY
VdW6
SciTegic.value.DoubleValue
-8.177

@<SCITEGIC>MOL_PROPERTY
VdW12
SciTegic.value.DoubleValue
9.004

@<SCITEGIC>MOL_PROPERTY
Bond
SciTegic.value.DoubleValue
0.182

@<SCITEGIC>MOL_PROPERTY
Angle
SciTegic.value.DoubleValue
2.988

@<SCITEGIC>MOL_PROPERTY
Pdih
SciTegic.value.DoubleValue
6.930

@<SCITEGIC>MOL_PROPERTY
Idih
SciTegic.value.DoubleValue
0.001

@<SCITEGIC>MOL_PROPERTY
Tether
SciTegic.value.DoubleValue
0.000

@<TRIPOS>MOLECULE
guest-s21_confgen4.mol2 : confsearch ligand conformer 554
          22          21           1
SMALL
USER_CHARGES
 
@<TRIPOS>ATOM
       1    C1      20.859583   21.037536   21.341926 C.2        1 MOL1         0.6145
       2    O1      20.076167   21.443517   20.505903 O.co2      1 MOL1        -0.6735
       3    O2      21.882999   20.441960   21.068128 O.co2      1 MOL1        -0.6735
       4    C2      20.581093   21.352951   22.810399 C.3        1 MOL1        -0.1985
       5    H1      20.610176   22.444889   22.901819 H          1 MOL1         0.0740
       6    H2      21.405387   20.964992   23.421030 H          1 MOL1         0.0740
       7    C3      19.219095   20.836271   23.353615 C.3        1 MOL1        -0.1882
       8    H3      18.971604   21.415288   24.253564 H          1 MOL1         0.0742
       9    H4      18.421367   21.049470   22.628530 H          1 MOL1         0.0742
      10    C4      19.200174   19.336080   23.738300 C.3        1 MOL1        -0.1880
      11    H5      18.249999   19.125975   24.248200 H          1 MOL1         0.0742
      12    H6      19.994379   19.131844   24.469296 H          1 MOL1         0.0742
      13    C5      19.341188   18.375267   22.536027 C.3        1 MOL1        -0.1880
      14    H7      18.612406   18.646011   21.759742 H          1 MOL1         0.0742
      15    H8      20.338658   18.478885   22.090628 H          1 MOL1         0.0742
      16    C6      19.129917   16.904493   22.953323 C.3        1 MOL1        -0.1856
      17    H9      18.130495   16.783223   23.393555 H          1 MOL1         0.0742
      18    H10     19.857027   16.632722   23.731054 H          1 MOL1         0.0742
      19    C7      19.280131   15.946916   21.754200 C.3        1 MOL1        -0.2871
      20    H11     18.543199   16.176930   20.973564 H          1 MOL1         0.0754
      21    H12     19.128031   14.906154   22.068372 H          1 MOL1         0.0754
      22    H13     20.282412   16.025157   21.312822 H          1 MOL1         0.0754
@<TRIPOS>BOND
    1     1     2    1
    2     1     3    2
    3     1     4    1
    4     4     5    1
    5     4     6    1
    6     4     7    1
    7     7     8    1
    8     7     9    1
    9     7    10    1
   10    10    11    1
   11    10    12    1
   12    10    13    1
   13    13    14    1
   14    13    15    1
   15    13    16    1
   16    16    17    1
   17    16    18    1
   18    16    19    1
   19    19    20    1
   20    19    21    1
   21    19    22    1
@<TRIPOS>SUBSTRUCTURE
       1 MOL1            1 RESIDUE      1      MOL     
@<SCITEGIC>MOL_PROPERTY
VConf Rank
SciTegic.value.IntegerValue
554

@<SCITEGIC>MOL_PROPERTY
Conf_Id
SciTegic.value.IntegerValue
8

@<SCITEGIC>MOL_PROPERTY
Delta U+W
SciTegic.value.DoubleValue
1.886

@<SCITEGIC>MOL_PROPERTY
U+W
SciTegic.value.DoubleValue
-51.274

@<SCITEGIC>MOL_PROPERTY
Grad RMS
SciTegic.value.DoubleValue
0.000000

@<SCITEGIC>MOL_PROPERTY
U
SciTegic.value.DoubleValue
11.237

@<SCITEGIC>MOL_PROPERTY
W
SciTegic.value.DoubleValue
-62.510

@<SCITEGIC>MOL_PROPERTY
W(PB)
SciTegic.value.DoubleValue
-64.777

@<SCITEGIC>MOL_PROPERTY
W(SA)
SciTegic.value.DoubleValue
2.267

@<SCITEGIC>MOL_PROPERTY
Valence
SciTegic.value.DoubleValue
9.029

@<SCITEGIC>MOL_PROPERTY
Coulomb
SciTegic.value.DoubleValue
1.667

@<SCITEGIC>MOL_PROPERTY
VdW
SciTegic.value.DoubleValue
0.540

@<SCITEGIC>MOL_PROPERTY
VdW6
SciTegic.value.DoubleValue
-8.825

@<SCITEGIC>MOL_PROPERTY
VdW12
SciTegic.value.DoubleValue
9.365

@<SCITEGIC>MOL_PROPERTY
Bond
SciTegic.value.DoubleValue
0.186

@<SCITEGIC>MOL_PROPERTY
Angle
SciTegic.value.DoubleValue
3.195

@<SCITEGIC>MOL_PROPERTY
Pdih
SciTegic.value.DoubleValue
5.642

@<SCITEGIC>MOL_PROPERTY
Idih
SciTegic.value.DoubleValue
0.007

@<SCITEGIC>MOL_PROPERTY
Tether
SciTegic.value.DoubleValue
0.000

@<TRIPOS>MOLECULE
guest-s21_confgen4.mol2 : confsearch ligand conformer 555
          22          21           1
SMALL
USER_CHARGES
 
@<TRIPOS>ATOM
       1    C1      22.477720   19.306376   21.188557 C.2        1 MOL1         0.6145
       2    O1      22.983569   18.884683   22.209859 O.co2      1 MOL1        -0.6735
       3    O2      22.864097   20.302285   20.608741 O.co2      1 MOL1        -0.6735
       4    C2      21.313060   18.528041   20.582815 C.3        1 MOL1        -0.1985
       5    H1      21.273139   17.536662   21.047876 H          1 MOL1         0.0740
       6    H2      21.547190   18.363475   19.524597 H          1 MOL1         0.0740
       7    C3      19.940272   19.245850   20.698356 C.3        1 MOL1        -0.1882
       8    H3      19.995813   20.198360   20.153408 H          1 MOL1         0.0742
       9    H4      19.175169   18.644755   20.188814 H          1 MOL1         0.0742
      10    C4      19.481461   19.530492   22.149977 C.3        1 MOL1        -0.1880
      11    H5      18.556414   20.118785   22.103159 H          1 MOL1         0.0742
      12    H6      20.224399   20.161350   22.656913 H          1 MOL1         0.0742
      13    C5      19.235773   18.247635   22.981458 C.3        1 MOL1        -0.1880
      14    H7      18.507992   17.604844   22.467994 H          1 MOL1         0.0742
      15    H8      20.169529   17.674324   23.047392 H          1 MOL1         0.0742
      16    C6      18.749621   18.532937   24.421687 C.3        1 MOL1        -0.1856
      17    H9      19.468422   19.188555   24.932439 H          1 MOL1         0.0742
      18    H10     18.739525   17.588097   24.982358 H          1 MOL1         0.0742
      19    C7      17.339076   19.158686   24.481784 C.3        1 MOL1        -0.2871
      20    H11     17.325560   20.162674   24.039998 H          1 MOL1         0.0754
      21    H12     17.004682   19.250599   25.523240 H          1 MOL1         0.0754
      22    H13     16.610022   18.536365   23.946718 H          1 MOL1         0.0754
@<TRIPOS>BOND
    1     1     2    1
    2     1     3    2
    3     1     4    1
    4     4     5    1
    5     4     6    1
    6     4     7    1
    7     7     8    1
    8     7     9    1
    9     7    10    1
   10    10    11    1
   11    10    12    1
   12    10    13    1
   13    13    14    1
   14    13    15    1
   15    13    16    1
   16    16    17    1
   17    16    18    1
   18    16    19    1
   19    19    20    1
   20    19    21    1
   21    19    22    1
@<TRIPOS>SUBSTRUCTURE
       1 MOL1            1 RESIDUE      1      MOL     
@<SCITEGIC>MOL_PROPERTY
VConf Rank
SciTegic.value.IntegerValue
555

@<SCITEGIC>MOL_PROPERTY
Conf_Id
SciTegic.value.IntegerValue
93

@<SCITEGIC>MOL_PROPERTY
Delta U+W
SciTegic.value.DoubleValue
1.836

@<SCITEGIC>MOL_PROPERTY
U+W
SciTegic.value.DoubleValue
-51.323

@<SCITEGIC>MOL_PROPERTY
Grad RMS
SciTegic.value.DoubleValue
0.000000

@<SCITEGIC>MOL_PROPERTY
U
SciTegic.value.DoubleValue
10.427

@<SCITEGIC>MOL_PROPERTY
W
SciTegic.value.DoubleValue
-61.751

@<SCITEGIC>MOL_PROPERTY
W(PB)
SciTegic.value.DoubleValue
-63.980

@<SCITEGIC>MOL_PROPERTY
W(SA)
SciTegic.value.DoubleValue
2.230

@<SCITEGIC>MOL_PROPERTY
Valence
SciTegic.value.DoubleValue
8.446

@<SCITEGIC>MOL_PROPERTY
Coulomb
SciTegic.value.DoubleValue
1.306

@<SCITEGIC>MOL_PROPERTY
VdW
SciTegic.value.DoubleValue
0.676

@<SCITEGIC>MOL_PROPERTY
VdW6
SciTegic.value.DoubleValue
-8.928

@<SCITEGIC>MOL_PROPERTY
VdW12
SciTegic.value.DoubleValue
9.604

@<SCITEGIC>MOL_PROPERTY
Bond
SciTegic.value.DoubleValue
0.209

@<SCITEGIC>MOL_PROPERTY
Angle
SciTegic.value.DoubleValue
3.066

@<SCITEGIC>MOL_PROPERTY
Pdih
SciTegic.value.DoubleValue
5.170

@<SCITEGIC>MOL_PROPERTY
Idih
SciTegic.value.DoubleValue
0.001

@<SCITEGIC>MOL_PROPERTY
Tether
SciTegic.value.DoubleValue
0.000

@<TRIPOS>MOLECULE
guest-s21_confgen4.mol2 : confsearch ligand conformer 556
          22          21           1
SMALL
USER_CHARGES
 
@<TRIPOS>ATOM
       1    C1      19.275527   16.072478   22.728789 C.2        1 MOL1         0.6145
       2    O1      18.198660   15.525923   22.866415 O.co2      1 MOL1        -0.6735
       3    O2      20.160949   16.031531   23.560124 O.co2      1 MOL1        -0.6735
       4    C2      19.538679   16.825281   21.427559 C.3        1 MOL1        -0.1985
       5    H1      19.272976   16.153043   20.603410 H          1 MOL1         0.0740
       6    H2      20.615162   17.010327   21.340090 H          1 MOL1         0.0740
       7    C3      18.739321   18.149783   21.286594 C.3        1 MOL1        -0.1882
       8    H3      18.945317   18.592160   20.302622 H          1 MOL1         0.0742
       9    H4      17.666093   17.914511   21.299006 H          1 MOL1         0.0742
      10    C4      19.030251   19.199010   22.388054 C.3        1 MOL1        -0.1880
      11    H5      18.793050   18.777071   23.374273 H          1 MOL1         0.0742
      12    H6      18.345522   20.043550   22.240087 H          1 MOL1         0.0742
      13    C5      20.491287   19.711610   22.380485 C.3        1 MOL1        -0.1880
      14    H7      21.172006   18.868134   22.553994 H          1 MOL1         0.0742
      15    H8      20.738705   20.116418   21.389824 H          1 MOL1         0.0742
      16    C6      20.772671   20.780708   23.462079 C.3        1 MOL1        -0.1856
      17    H9      21.852595   20.981829   23.484220 H          1 MOL1         0.0742
      18    H10     20.511170   20.383534   24.452660 H          1 MOL1         0.0742
      19    C7      20.026769   22.111091   23.220170 C.3        1 MOL1        -0.2871
      20    H11     18.940749   21.985098   23.309816 H          1 MOL1         0.0754
      21    H12     20.246722   22.508802   22.220898 H          1 MOL1         0.0754
      22    H13     20.335000   22.862921   23.958170 H          1 MOL1         0.0754
@<TRIPOS>BOND
    1     1     2    1
    2     1     3    2
    3     1     4    1
    4     4     5    1
    5     4     6    1
    6     4     7    1
    7     7     8    1
    8     7     9    1
    9     7    10    1
   10    10    11    1
   11    10    12    1
   12    10    13    1
   13    13    14    1
   14    13    15    1
   15    13    16    1
   16    16    17    1
   17    16    18    1
   18    16    19    1
   19    19    20    1
   20    19    21    1
   21    19    22    1
@<TRIPOS>SUBSTRUCTURE
       1 MOL1            1 RESIDUE      1      MOL     
@<SCITEGIC>MOL_PROPERTY
VConf Rank
SciTegic.value.IntegerValue
556

@<SCITEGIC>MOL_PROPERTY
Conf_Id
SciTegic.value.IntegerValue
70

@<SCITEGIC>MOL_PROPERTY
Delta U+W
SciTegic.value.DoubleValue
1.803

@<SCITEGIC>MOL_PROPERTY
U+W
SciTegic.value.DoubleValue
-51.356

@<SCITEGIC>MOL_PROPERTY
Grad RMS
SciTegic.value.DoubleValue
0.000000

@<SCITEGIC>MOL_PROPERTY
U
SciTegic.value.DoubleValue
10.428

@<SCITEGIC>MOL_PROPERTY
W
SciTegic.value.DoubleValue
-61.784

@<SCITEGIC>MOL_PROPERTY
W(PB)
SciTegic.value.DoubleValue
-64.014

@<SCITEGIC>MOL_PROPERTY
W(SA)
SciTegic.value.DoubleValue
2.230

@<SCITEGIC>MOL_PROPERTY
Valence
SciTegic.value.DoubleValue
8.445

@<SCITEGIC>MOL_PROPERTY
Coulomb
SciTegic.value.DoubleValue
1.306

@<SCITEGIC>MOL_PROPERTY
VdW
SciTegic.value.DoubleValue
0.676

@<SCITEGIC>MOL_PROPERTY
VdW6
SciTegic.value.DoubleValue
-8.929

@<SCITEGIC>MOL_PROPERTY
VdW12
SciTegic.value.DoubleValue
9.605

@<SCITEGIC>MOL_PROPERTY
Bond
SciTegic.value.DoubleValue
0.209

@<SCITEGIC>MOL_PROPERTY
Angle
SciTegic.value.DoubleValue
3.066

@<SCITEGIC>MOL_PROPERTY
Pdih
SciTegic.value.DoubleValue
5.170

@<SCITEGIC>MOL_PROPERTY
Idih
SciTegic.value.DoubleValue
0.001

@<SCITEGIC>MOL_PROPERTY
Tether
SciTegic.value.DoubleValue
0.000

@<TRIPOS>MOLECULE
guest-s21_confgen4.mol2 : confsearch ligand conformer 557
          22          21           1
SMALL
USER_CHARGES
 
@<TRIPOS>ATOM
       1    C1      17.246654   20.008987   20.352597 C.2        1 MOL1         0.6145
       2    O1      17.736816   20.937454   19.740548 O.co2      1 MOL1        -0.6735
       3    O2      16.222015   20.096718   21.000129 O.co2      1 MOL1        -0.6735
       4    C2      17.946465   18.654403   20.285796 C.3        1 MOL1        -0.1985
       5    H1      18.216673   18.475634   19.238386 H          1 MOL1         0.0740
       6    H2      17.227601   17.874758   20.565491 H          1 MOL1         0.0740
       7    C3      19.215417   18.556965   21.171940 C.3        1 MOL1        -0.1882
       8    H3      19.723643   17.605805   20.963935 H          1 MOL1         0.0742
       9    H4      19.910375   19.357838   20.886867 H          1 MOL1         0.0742
      10    C4      18.890463   18.642906   22.682431 C.3        1 MOL1        -0.1880
      11    H5      18.128689   17.890077   22.926948 H          1 MOL1         0.0742
      12    H6      18.444420   19.620189   22.913229 H          1 MOL1         0.0742
      13    C5      20.120569   18.410340   23.591430 C.3        1 MOL1        -0.1880
      14    H7      19.778852   18.366044   24.634577 H          1 MOL1         0.0742
      15    H8      20.563773   17.430286   23.367980 H          1 MOL1         0.0742
      16    C6      21.197704   19.510996   23.462952 C.3        1 MOL1        -0.1856
      17    H9      20.742777   20.496331   23.634487 H          1 MOL1         0.0742
      18    H10     21.609120   19.520810   22.445111 H          1 MOL1         0.0742
      19    C7      22.348259   19.296166   24.466846 C.3        1 MOL1        -0.2871
      20    H11     21.978044   19.319119   25.500173 H          1 MOL1         0.0754
      21    H12     23.105886   20.083477   24.361005 H          1 MOL1         0.0754
      22    H13     22.839237   18.328493   24.299745 H          1 MOL1         0.0754
@<TRIPOS>BOND
    1     1     2    1
    2     1     3    2
    3     1     4    1
    4     4     5    1
    5     4     6    1
    6     4     7    1
    7     7     8    1
    8     7     9    1
    9     7    10    1
   10    10    11    1
   11    10    12    1
   12    10    13    1
   13    13    14    1
   14    13    15    1
   15    13    16    1
   16    16    17    1
   17    16    18    1
   18    16    19    1
   19    19    20    1
   20    19    21    1
   21    19    22    1
@<TRIPOS>SUBSTRUCTURE
       1 MOL1            1 RESIDUE      1      MOL     
@<SCITEGIC>MOL_PROPERTY
VConf Rank
SciTegic.value.IntegerValue
557

@<SCITEGIC>MOL_PROPERTY
Conf_Id
SciTegic.value.IntegerValue
85

@<SCITEGIC>MOL_PROPERTY
Delta U+W
SciTegic.value.DoubleValue
0.707

@<SCITEGIC>MOL_PROPERTY
U+W
SciTegic.value.DoubleValue
-52.452

@<SCITEGIC>MOL_PROPERTY
Grad RMS
SciTegic.value.DoubleValue
0.000000

@<SCITEGIC>MOL_PROPERTY
U
SciTegic.value.DoubleValue
8.925

@<SCITEGIC>MOL_PROPERTY
W
SciTegic.value.DoubleValue
-61.378

@<SCITEGIC>MOL_PROPERTY
W(PB)
SciTegic.value.DoubleValue
-63.661

@<SCITEGIC>MOL_PROPERTY
W(SA)
SciTegic.value.DoubleValue
2.283

@<SCITEGIC>MOL_PROPERTY
Valence
SciTegic.value.DoubleValue
7.881

@<SCITEGIC>MOL_PROPERTY
Coulomb
SciTegic.value.DoubleValue
0.349

@<SCITEGIC>MOL_PROPERTY
VdW
SciTegic.value.DoubleValue
0.695

@<SCITEGIC>MOL_PROPERTY
VdW6
SciTegic.value.DoubleValue
-8.049

@<SCITEGIC>MOL_PROPERTY
VdW12
SciTegic.value.DoubleValue
8.743

@<SCITEGIC>MOL_PROPERTY
Bond
SciTegic.value.DoubleValue
0.156

@<SCITEGIC>MOL_PROPERTY
Angle
SciTegic.value.DoubleValue
2.660

@<SCITEGIC>MOL_PROPERTY
Pdih
SciTegic.value.DoubleValue
5.064

@<SCITEGIC>MOL_PROPERTY
Idih
SciTegic.value.DoubleValue
0.001

@<SCITEGIC>MOL_PROPERTY
Tether
SciTegic.value.DoubleValue
0.000

@<TRIPOS>MOLECULE
guest-s21_confgen4.mol2 : confsearch ligand conformer 558
          22          21           1
SMALL
USER_CHARGES
 
@<TRIPOS>ATOM
       1    C1      20.873819   15.717752   22.032379 C.2        1 MOL1         0.6145
       2    O1      20.777880   15.323151   20.886942 O.co2      1 MOL1        -0.6735
       3    O2      21.864242   15.556560   22.717984 O.co2      1 MOL1        -0.6735
       4    C2      19.677985   16.434597   22.653274 C.3        1 MOL1        -0.1985
       5    H1      19.521621   16.005748   23.650084 H          1 MOL1         0.0740
       6    H2      18.783522   16.200794   22.063251 H          1 MOL1         0.0740
       7    C3      19.853569   17.970957   22.773499 C.3        1 MOL1        -0.1882
       8    H3      19.020960   18.368332   23.367436 H          1 MOL1         0.0742
       9    H4      20.777622   18.190746   23.325855 H          1 MOL1         0.0742
      10    C4      19.882302   18.676150   21.397650 C.3        1 MOL1        -0.1880
      11    H5      18.921079   18.522212   20.888676 H          1 MOL1         0.0742
      12    H6      20.643849   18.200823   20.764442 H          1 MOL1         0.0742
      13    C5      20.191950   20.192699   21.466359 C.3        1 MOL1        -0.1880
      14    H7      21.192877   20.353720   21.889614 H          1 MOL1         0.0742
      15    H8      20.241287   20.566143   20.434384 H          1 MOL1         0.0742
      16    C6      19.142707   21.035452   22.233665 C.3        1 MOL1        -0.1856
      17    H9      18.156556   20.553495   22.184330 H          1 MOL1         0.0742
      18    H10     19.033969   22.005202   21.728632 H          1 MOL1         0.0742
      19    C7      19.534908   21.304754   23.703592 C.3        1 MOL1        -0.2871
      20    H11     19.646158   20.375431   24.273578 H          1 MOL1         0.0754
      21    H12     18.767859   21.912828   24.200281 H          1 MOL1         0.0754
      22    H13     20.484999   21.851801   23.759742 H          1 MOL1         0.0754
@<TRIPOS>BOND
    1     1     2    1
    2     1     3    2
    3     1     4    1
    4     4     5    1
    5     4     6    1
    6     4     7    1
    7     7     8    1
    8     7     9    1
    9     7    10    1
   10    10    11    1
   11    10    12    1
   12    10    13    1
   13    13    14    1
   14    13    15    1
   15    13    16    1
   16    16    17    1
   17    16    18    1
   18    16    19    1
   19    19    20    1
   20    19    21    1
   21    19    22    1
@<TRIPOS>SUBSTRUCTURE
       1 MOL1            1 RESIDUE      1      MOL     
@<SCITEGIC>MOL_PROPERTY
VConf Rank
SciTegic.value.IntegerValue
558

@<SCITEGIC>MOL_PROPERTY
Conf_Id
SciTegic.value.IntegerValue
82

@<SCITEGIC>MOL_PROPERTY
Delta U+W
SciTegic.value.DoubleValue
3.438

@<SCITEGIC>MOL_PROPERTY
U+W
SciTegic.value.DoubleValue
-49.721

@<SCITEGIC>MOL_PROPERTY
Grad RMS
SciTegic.value.DoubleValue
0.000000

@<SCITEGIC>MOL_PROPERTY
U
SciTegic.value.DoubleValue
11.773

@<SCITEGIC>MOL_PROPERTY
W
SciTegic.value.DoubleValue
-61.495

@<SCITEGIC>MOL_PROPERTY
W(PB)
SciTegic.value.DoubleValue
-63.749

@<SCITEGIC>MOL_PROPERTY
W(SA)
SciTegic.value.DoubleValue
2.254

@<SCITEGIC>MOL_PROPERTY
Valence
SciTegic.value.DoubleValue
10.419

@<SCITEGIC>MOL_PROPERTY
Coulomb
SciTegic.value.DoubleValue
0.565

@<SCITEGIC>MOL_PROPERTY
VdW
SciTegic.value.DoubleValue
0.789

@<SCITEGIC>MOL_PROPERTY
VdW6
SciTegic.value.DoubleValue
-8.847

@<SCITEGIC>MOL_PROPERTY
VdW12
SciTegic.value.DoubleValue
9.636

@<SCITEGIC>MOL_PROPERTY
Bond
SciTegic.value.DoubleValue
0.200

@<SCITEGIC>MOL_PROPERTY
Angle
SciTegic.value.DoubleValue
3.187

@<SCITEGIC>MOL_PROPERTY
Pdih
SciTegic.value.DoubleValue
7.032

@<SCITEGIC>MOL_PROPERTY
Idih
SciTegic.value.DoubleValue
0.001

@<SCITEGIC>MOL_PROPERTY
Tether
SciTegic.value.DoubleValue
0.000

@<TRIPOS>MOLECULE
guest-s21_confgen4.mol2 : confsearch ligand conformer 559
          22          21           1
SMALL
USER_CHARGES
 
@<TRIPOS>ATOM
       1    C1      17.090671   18.209607   20.765272 C.2        1 MOL1         0.6145
       2    O1      16.196479   18.861059   21.268266 O.co2      1 MOL1        -0.6735
       3    O2      17.253259   18.105493   19.565411 O.co2      1 MOL1        -0.6735
       4    C2      18.046380   17.463621   21.692377 C.3        1 MOL1        -0.1985
       5    H1      18.551696   16.678238   21.117325 H          1 MOL1         0.0740
       6    H2      17.437476   16.958991   22.451703 H          1 MOL1         0.0740
       7    C3      19.091496   18.373543   22.389132 C.3        1 MOL1        -0.1882
       8    H3      18.573485   19.182722   22.922209 H          1 MOL1         0.0742
       9    H4      19.620095   17.777471   23.143577 H          1 MOL1         0.0742
      10    C4      20.117532   18.968987   21.397276 C.3        1 MOL1        -0.1880
      11    H5      19.580667   19.471352   20.581037 H          1 MOL1         0.0742
      12    H6      20.690009   18.155001   20.932091 H          1 MOL1         0.0742
      13    C5      21.095504   19.990471   22.030261 C.3        1 MOL1        -0.1880
      14    H7      21.730924   20.381704   21.224007 H          1 MOL1         0.0742
      15    H8      20.538658   20.854999   22.416836 H          1 MOL1         0.0742
      16    C6      22.017727   19.409963   23.131356 C.3        1 MOL1        -0.1856
      17    H9      23.003728   19.888226   23.051573 H          1 MOL1         0.0742
      18    H10     22.184448   18.337150   22.962575 H          1 MOL1         0.0742
      19    C7      21.485090   19.651307   24.561418 C.3        1 MOL1        -0.2871
      20    H11     21.384960   20.725536   24.764129 H          1 MOL1         0.0754
      21    H12     22.176409   19.232789   25.304210 H          1 MOL1         0.0754
      22    H13     20.505274   19.185655   24.716447 H          1 MOL1         0.0754
@<TRIPOS>BOND
    1     1     2    1
    2     1     3    2
    3     1     4    1
    4     4     5    1
    5     4     6    1
    6     4     7    1
    7     7     8    1
    8     7     9    1
    9     7    10    1
   10    10    11    1
   11    10    12    1
   12    10    13    1
   13    13    14    1
   14    13    15    1
   15    13    16    1
   16    16    17    1
   17    16    18    1
   18    16    19    1
   19    19    20    1
   20    19    21    1
   21    19    22    1
@<TRIPOS>SUBSTRUCTURE
       1 MOL1            1 RESIDUE      1      MOL     
@<SCITEGIC>MOL_PROPERTY
VConf Rank
SciTegic.value.IntegerValue
559

@<SCITEGIC>MOL_PROPERTY
Conf_Id
SciTegic.value.IntegerValue
94

@<SCITEGIC>MOL_PROPERTY
Delta U+W
SciTegic.value.DoubleValue
3.471

@<SCITEGIC>MOL_PROPERTY
U+W
SciTegic.value.DoubleValue
-49.688

@<SCITEGIC>MOL_PROPERTY
Grad RMS
SciTegic.value.DoubleValue
0.000000

@<SCITEGIC>MOL_PROPERTY
U
SciTegic.value.DoubleValue
11.773

@<SCITEGIC>MOL_PROPERTY
W
SciTegic.value.DoubleValue
-61.461

@<SCITEGIC>MOL_PROPERTY
W(PB)
SciTegic.value.DoubleValue
-63.710

@<SCITEGIC>MOL_PROPERTY
W(SA)
SciTegic.value.DoubleValue
2.248

@<SCITEGIC>MOL_PROPERTY
Valence
SciTegic.value.DoubleValue
10.419

@<SCITEGIC>MOL_PROPERTY
Coulomb
SciTegic.value.DoubleValue
0.566

@<SCITEGIC>MOL_PROPERTY
VdW
SciTegic.value.DoubleValue
0.789

@<SCITEGIC>MOL_PROPERTY
VdW6
SciTegic.value.DoubleValue
-8.847

@<SCITEGIC>MOL_PROPERTY
VdW12
SciTegic.value.DoubleValue
9.636

@<SCITEGIC>MOL_PROPERTY
Bond
SciTegic.value.DoubleValue
0.200

@<SCITEGIC>MOL_PROPERTY
Angle
SciTegic.value.DoubleValue
3.187

@<SCITEGIC>MOL_PROPERTY
Pdih
SciTegic.value.DoubleValue
7.032

@<SCITEGIC>MOL_PROPERTY
Idih
SciTegic.value.DoubleValue
0.001

@<SCITEGIC>MOL_PROPERTY
Tether
SciTegic.value.DoubleValue
0.000

@<TRIPOS>MOLECULE
guest-s21_confgen4.mol2 : confsearch ligand conformer 560
          22          21           1
SMALL
USER_CHARGES
 
@<TRIPOS>ATOM
       1    C1      21.725356   21.802515   22.430609 C.2        1 MOL1         0.6145
       2    O1      21.507706   22.958328   22.124959 O.co2      1 MOL1        -0.6735
       3    O2      22.823107   21.285323   22.367116 O.co2      1 MOL1        -0.6735
       4    C2      20.552848   20.949453   22.901187 C.3        1 MOL1        -0.1985
       5    H1      19.847852   21.601078   23.430903 H          1 MOL1         0.0740
       6    H2      20.937490   20.225741   23.628735 H          1 MOL1         0.0740
       7    C3      19.835308   20.220351   21.735855 C.3        1 MOL1        -0.1882
       8    H3      19.535075   20.964530   20.985418 H          1 MOL1         0.0742
       9    H4      20.542658   19.548796   21.231379 H          1 MOL1         0.0742
      10    C4      18.577682   19.432366   22.180685 C.3        1 MOL1        -0.1880
      11    H5      18.102133   18.992712   21.294102 H          1 MOL1         0.0742
      12    H6      17.843869   20.138871   22.591678 H          1 MOL1         0.0742
      13    C5      18.833218   18.318349   23.229892 C.3        1 MOL1        -0.1880
      14    H7      19.155109   18.775614   24.174639 H          1 MOL1         0.0742
      15    H8      17.879205   17.821038   23.451443 H          1 MOL1         0.0742
      16    C6      19.869314   17.245645   22.813071 C.3        1 MOL1        -0.1856
      17    H9      19.985289   16.530971   23.639326 H          1 MOL1         0.0742
      18    H10     20.855351   17.707544   22.670300 H          1 MOL1         0.0742
      19    C7      19.466832   16.471484   21.539303 C.3        1 MOL1        -0.2871
      20    H11     18.475397   16.014542   21.654261 H          1 MOL1         0.0754
      21    H12     20.187581   15.669802   21.332974 H          1 MOL1         0.0754
      22    H13     19.442781   17.131313   20.662945 H          1 MOL1         0.0754
@<TRIPOS>BOND
    1     1     2    1
    2     1     3    2
    3     1     4    1
    4     4     5    1
    5     4     6    1
    6     4     7    1
    7     7     8    1
    8     7     9    1
    9     7    10    1
   10    10    11    1
   11    10    12    1
   12    10    13    1
   13    13    14    1
   14    13    15    1
   15    13    16    1
   16    16    17    1
   17    16    18    1
   18    16    19    1
   19    19    20    1
   20    19    21    1
   21    19    22    1
@<TRIPOS>SUBSTRUCTURE
       1 MOL1            1 RESIDUE      1      MOL     
@<SCITEGIC>MOL_PROPERTY
VConf Rank
SciTegic.value.IntegerValue
560

@<SCITEGIC>MOL_PROPERTY
Conf_Id
SciTegic.value.IntegerValue
56

@<SCITEGIC>MOL_PROPERTY
Delta U+W
SciTegic.value.DoubleValue
0.853

@<SCITEGIC>MOL_PROPERTY
U+W
SciTegic.value.DoubleValue
-52.307

@<SCITEGIC>MOL_PROPERTY
Grad RMS
SciTegic.value.DoubleValue
0.000000

@<SCITEGIC>MOL_PROPERTY
U
SciTegic.value.DoubleValue
8.874

@<SCITEGIC>MOL_PROPERTY
W
SciTegic.value.DoubleValue
-61.181

@<SCITEGIC>MOL_PROPERTY
W(PB)
SciTegic.value.DoubleValue
-63.413

@<SCITEGIC>MOL_PROPERTY
W(SA)
SciTegic.value.DoubleValue
2.232

@<SCITEGIC>MOL_PROPERTY
Valence
SciTegic.value.DoubleValue
8.479

@<SCITEGIC>MOL_PROPERTY
Coulomb
SciTegic.value.DoubleValue
-0.357

@<SCITEGIC>MOL_PROPERTY
VdW
SciTegic.value.DoubleValue
0.753

@<SCITEGIC>MOL_PROPERTY
VdW6
SciTegic.value.DoubleValue
-9.081

@<SCITEGIC>MOL_PROPERTY
VdW12
SciTegic.value.DoubleValue
9.833

@<SCITEGIC>MOL_PROPERTY
Bond
SciTegic.value.DoubleValue
0.221

@<SCITEGIC>MOL_PROPERTY
Angle
SciTegic.value.DoubleValue
3.208

@<SCITEGIC>MOL_PROPERTY
Pdih
SciTegic.value.DoubleValue
5.050

@<SCITEGIC>MOL_PROPERTY
Idih
SciTegic.value.DoubleValue
0.000

@<SCITEGIC>MOL_PROPERTY
Tether
SciTegic.value.DoubleValue
0.000

@<TRIPOS>MOLECULE
guest-s21_confgen4.mol2 : confsearch ligand conformer 561
          22          21           1
SMALL
USER_CHARGES
 
@<TRIPOS>ATOM
       1    C1      23.731136   19.684286   21.360973 C.2        1 MOL1         0.6145
       2    O1      24.108812   19.136315   22.378563 O.co2      1 MOL1        -0.6735
       3    O2      24.490336   20.192565   20.560230 O.co2      1 MOL1        -0.6735
       4    C2      22.235905   19.753506   21.046300 C.3        1 MOL1        -0.1985
       5    H1      22.085383   19.281401   20.068327 H          1 MOL1         0.0740
       6    H2      21.973787   20.812253   20.935327 H          1 MOL1         0.0740
       7    C3      21.306259   19.090494   22.097290 C.3        1 MOL1        -0.1882
       8    H3      21.578285   18.031624   22.208138 H          1 MOL1         0.0742
       9    H4      21.466442   19.563978   23.075883 H          1 MOL1         0.0742
      10    C4      19.818073   19.205895   21.701693 C.3        1 MOL1        -0.1880
      11    H5      19.660412   18.731888   20.723127 H          1 MOL1         0.0742
      12    H6      19.548524   20.265278   21.591329 H          1 MOL1         0.0742
      13    C5      18.895114   18.545855   22.748498 C.3        1 MOL1        -0.1880
      14    H7      19.164328   17.486429   22.859258 H          1 MOL1         0.0742
      15    H8      19.052405   19.019577   23.727260 H          1 MOL1         0.0742
      16    C6      17.407802   18.660750   22.353777 C.3        1 MOL1        -0.1856
      17    H9      17.246194   18.186085   21.375998 H          1 MOL1         0.0742
      18    H10     17.134282   19.719336   22.243966 H          1 MOL1         0.0742
      19    C7      16.489484   18.000508   23.401683 C.3        1 MOL1        -0.2871
      20    H11     16.720428   16.932552   23.509122 H          1 MOL1         0.0754
      21    H12     15.436392   18.091371   23.105315 H          1 MOL1         0.0754
      22    H13     16.607624   18.477330   24.383565 H          1 MOL1         0.0754
@<TRIPOS>BOND
    1     1     2    1
    2     1     3    2
    3     1     4    1
    4     4     5    1
    5     4     6    1
    6     4     7    1
    7     7     8    1
    8     7     9    1
    9     7    10    1
   10    10    11    1
   11    10    12    1
   12    10    13    1
   13    13    14    1
   14    13    15    1
   15    13    16    1
   16    16    17    1
   17    16    18    1
   18    16    19    1
   19    19    20    1
   20    19    21    1
   21    19    22    1
@<TRIPOS>SUBSTRUCTURE
       1 MOL1            1 RESIDUE      1      MOL     
@<SCITEGIC>MOL_PROPERTY
VConf Rank
SciTegic.value.IntegerValue
561

@<SCITEGIC>MOL_PROPERTY
Conf_Id
SciTegic.value.IntegerValue
0

@<SCITEGIC>MOL_PROPERTY
Delta U+W
SciTegic.value.DoubleValue
0.000

@<SCITEGIC>MOL_PROPERTY
U+W
SciTegic.value.DoubleValue
-53.159

@<SCITEGIC>MOL_PROPERTY
Grad RMS
SciTegic.value.DoubleValue
0.000000

@<SCITEGIC>MOL_PROPERTY
U
SciTegic.value.DoubleValue
6.763

@<SCITEGIC>MOL_PROPERTY
W
SciTegic.value.DoubleValue
-59.922

@<SCITEGIC>MOL_PROPERTY
W(PB)
SciTegic.value.DoubleValue
-62.256

@<SCITEGIC>MOL_PROPERTY
W(SA)
SciTegic.value.DoubleValue
2.334

@<SCITEGIC>MOL_PROPERTY
Valence
SciTegic.value.DoubleValue
7.600

@<SCITEGIC>MOL_PROPERTY
Coulomb
SciTegic.value.DoubleValue
-2.139

@<SCITEGIC>MOL_PROPERTY
VdW
SciTegic.value.DoubleValue
1.302

@<SCITEGIC>MOL_PROPERTY
VdW6
SciTegic.value.DoubleValue
-6.786

@<SCITEGIC>MOL_PROPERTY
VdW12
SciTegic.value.DoubleValue
8.088

@<SCITEGIC>MOL_PROPERTY
Bond
SciTegic.value.DoubleValue
0.134

@<SCITEGIC>MOL_PROPERTY
Angle
SciTegic.value.DoubleValue
2.720

@<SCITEGIC>MOL_PROPERTY
Pdih
SciTegic.value.DoubleValue
4.746

@<SCITEGIC>MOL_PROPERTY
Idih
SciTegic.value.DoubleValue
0.000

@<SCITEGIC>MOL_PROPERTY
Tether
SciTegic.value.DoubleValue
0.000

@<TRIPOS>MOLECULE
guest-s21_confgen4.mol2 : confsearch ligand conformer 562
          22          21           1
SMALL
USER_CHARGES
 
@<TRIPOS>ATOM
       1    C1      20.226135   15.319153   23.781507 C.2        1 MOL1         0.6145
       2    O1      21.011593   14.602117   23.193846 O.co2      1 MOL1        -0.6735
       3    O2      19.237149   14.906788   24.354477 O.co2      1 MOL1        -0.6735
       4    C2      20.483735   16.821769   23.780897 C.3        1 MOL1        -0.1985
       5    H1      21.568630   16.981479   23.768357 H          1 MOL1         0.0740
       6    H2      20.106451   17.232524   24.725142 H          1 MOL1         0.0740
       7    C3      19.823088   17.545012   22.581516 C.3        1 MOL1        -0.1882
       8    H3      20.201426   17.113491   21.644381 H          1 MOL1         0.0742
       9    H4      18.739292   17.364530   22.601137 H          1 MOL1         0.0742
      10    C4      20.098414   19.064085   22.603687 C.3        1 MOL1        -0.1880
      11    H5      21.182639   19.240975   22.585232 H          1 MOL1         0.0742
      12    H6      19.720163   19.492077   23.542262 H          1 MOL1         0.0742
      13    C5      19.438632   19.782352   21.406995 C.3        1 MOL1        -0.1880
      14    H7      19.816620   19.354632   20.468216 H          1 MOL1         0.0742
      15    H8      18.354386   19.605694   21.425083 H          1 MOL1         0.0742
      16    C6      19.713357   21.300619   21.428446 C.3        1 MOL1        -0.1856
      17    H9      20.797050   21.481406   21.408421 H          1 MOL1         0.0742
      18    H10     19.334828   21.732474   22.365299 H          1 MOL1         0.0742
      19    C7      19.052842   22.014227   20.231857 C.3        1 MOL1        -0.2871
      20    H11     17.963710   21.876259   20.244647 H          1 MOL1         0.0754
      21    H12     19.436856   21.623161   19.280539 H          1 MOL1         0.0754
      22    H13     19.258282   23.092156   20.262788 H          1 MOL1         0.0754
@<TRIPOS>BOND
    1     1     2    1
    2     1     3    2
    3     1     4    1
    4     4     5    1
    5     4     6    1
    6     4     7    1
    7     7     8    1
    8     7     9    1
    9     7    10    1
   10    10    11    1
   11    10    12    1
   12    10    13    1
   13    13    14    1
   14    13    15    1
   15    13    16    1
   16    16    17    1
   17    16    18    1
   18    16    19    1
   19    19    20    1
   20    19    21    1
   21    19    22    1
@<TRIPOS>SUBSTRUCTURE
       1 MOL1            1 RESIDUE      1      MOL     
@<SCITEGIC>MOL_PROPERTY
VConf Rank
SciTegic.value.IntegerValue
562

@<SCITEGIC>MOL_PROPERTY
Conf_Id
SciTegic.value.IntegerValue
10

@<SCITEGIC>MOL_PROPERTY
Delta U+W
SciTegic.value.DoubleValue
-1.291

@<SCITEGIC>MOL_PROPERTY
U+W
SciTegic.value.DoubleValue
-54.451

@<SCITEGIC>MOL_PROPERTY
Grad RMS
SciTegic.value.DoubleValue
0.000000

@<SCITEGIC>MOL_PROPERTY
U
SciTegic.value.DoubleValue
5.779

@<SCITEGIC>MOL_PROPERTY
W
SciTegic.value.DoubleValue
-60.230

@<SCITEGIC>MOL_PROPERTY
W(PB)
SciTegic.value.DoubleValue
-62.557

@<SCITEGIC>MOL_PROPERTY
W(SA)
SciTegic.value.DoubleValue
2.328

@<SCITEGIC>MOL_PROPERTY
Valence
SciTegic.value.DoubleValue
7.101

@<SCITEGIC>MOL_PROPERTY
Coulomb
SciTegic.value.DoubleValue
-2.079

@<SCITEGIC>MOL_PROPERTY
VdW
SciTegic.value.DoubleValue
0.757

@<SCITEGIC>MOL_PROPERTY
VdW6
SciTegic.value.DoubleValue
-6.496

@<SCITEGIC>MOL_PROPERTY
VdW12
SciTegic.value.DoubleValue
7.253

@<SCITEGIC>MOL_PROPERTY
Bond
SciTegic.value.DoubleValue
0.100

@<SCITEGIC>MOL_PROPERTY
Angle
SciTegic.value.DoubleValue
2.262

@<SCITEGIC>MOL_PROPERTY
Pdih
SciTegic.value.DoubleValue
4.738

@<SCITEGIC>MOL_PROPERTY
Idih
SciTegic.value.DoubleValue
0.001

@<SCITEGIC>MOL_PROPERTY
Tether
SciTegic.value.DoubleValue
0.000

@<TRIPOS>MOLECULE
guest-s21_confgen4.mol2 : confsearch ligand conformer 563
          22          21           1
SMALL
USER_CHARGES
 
@<TRIPOS>ATOM
       1    C1      17.192376   19.940240   24.840576 C.2        1 MOL1         0.6145
       2    O1      16.681620   21.016595   24.601744 O.co2      1 MOL1        -0.6735
       3    O2      16.636560   19.053839   25.458490 O.co2      1 MOL1        -0.6735
       4    C2      18.600616   19.679740   24.317883 C.3        1 MOL1        -0.1985
       5    H1      19.109184   19.014214   25.025753 H          1 MOL1         0.0740
       6    H2      19.145773   20.631297   24.318590 H          1 MOL1         0.0740
       7    C3      18.610746   19.059033   22.899161 C.3        1 MOL1        -0.1882
       8    H3      18.049732   18.114263   22.912791 H          1 MOL1         0.0742
       9    H4      18.087175   19.731156   22.205134 H          1 MOL1         0.0742
      10    C4      20.047294   18.805175   22.392969 C.3        1 MOL1        -0.1880
      11    H5      20.567484   18.131435   23.087471 H          1 MOL1         0.0742
      12    H6      20.600531   19.753378   22.390136 H          1 MOL1         0.0742
      13    C5      20.052036   18.189002   20.975025 C.3        1 MOL1        -0.1880
      14    H7      19.436193   17.279245   20.978597 H          1 MOL1         0.0742
      15    H8      19.577443   18.883176   20.268046 H          1 MOL1         0.0742
      16    C6      21.466427   17.822206   20.468797 C.3        1 MOL1        -0.1856
      17    H9      21.371164   17.286925   19.514002 H          1 MOL1         0.0742
      18    H10     21.941945   17.122896   21.170337 H          1 MOL1         0.0742
      19    C7      22.378931   19.050350   20.260934 C.3        1 MOL1        -0.2871
      20    H11     23.336418   18.746475   19.818443 H          1 MOL1         0.0754
      21    H12     22.597332   19.552834   21.211467 H          1 MOL1         0.0754
      22    H13     21.910442   19.778172   19.585709 H          1 MOL1         0.0754
@<TRIPOS>BOND
    1     1     2    1
    2     1     3    2
    3     1     4    1
    4     4     5    1
    5     4     6    1
    6     4     7    1
    7     7     8    1
    8     7     9    1
    9     7    10    1
   10    10    11    1
   11    10    12    1
   12    10    13    1
   13    13    14    1
   14    13    15    1
   15    13    16    1
   16    16    17    1
   17    16    18    1
   18    16    19    1
   19    19    20    1
   20    19    21    1
   21    19    22    1
@<TRIPOS>SUBSTRUCTURE
       1 MOL1            1 RESIDUE      1      MOL     
@<SCITEGIC>MOL_PROPERTY
VConf Rank
SciTegic.value.IntegerValue
563

@<SCITEGIC>MOL_PROPERTY
Conf_Id
SciTegic.value.IntegerValue
37

@<SCITEGIC>MOL_PROPERTY
Delta U+W
SciTegic.value.DoubleValue
-0.345

@<SCITEGIC>MOL_PROPERTY
U+W
SciTegic.value.DoubleValue
-53.504

@<SCITEGIC>MOL_PROPERTY
Grad RMS
SciTegic.value.DoubleValue
0.000000

@<SCITEGIC>MOL_PROPERTY
U
SciTegic.value.DoubleValue
6.751

@<SCITEGIC>MOL_PROPERTY
W
SciTegic.value.DoubleValue
-60.255

@<SCITEGIC>MOL_PROPERTY
W(PB)
SciTegic.value.DoubleValue
-62.592

@<SCITEGIC>MOL_PROPERTY
W(SA)
SciTegic.value.DoubleValue
2.336

@<SCITEGIC>MOL_PROPERTY
Valence
SciTegic.value.DoubleValue
7.602

@<SCITEGIC>MOL_PROPERTY
Coulomb
SciTegic.value.DoubleValue
-1.744

@<SCITEGIC>MOL_PROPERTY
VdW
SciTegic.value.DoubleValue
0.894

@<SCITEGIC>MOL_PROPERTY
VdW6
SciTegic.value.DoubleValue
-7.110

@<SCITEGIC>MOL_PROPERTY
VdW12
SciTegic.value.DoubleValue
8.004

@<SCITEGIC>MOL_PROPERTY
Bond
SciTegic.value.DoubleValue
0.131

@<SCITEGIC>MOL_PROPERTY
Angle
SciTegic.value.DoubleValue
2.489

@<SCITEGIC>MOL_PROPERTY
Pdih
SciTegic.value.DoubleValue
4.982

@<SCITEGIC>MOL_PROPERTY
Idih
SciTegic.value.DoubleValue
0.001

@<SCITEGIC>MOL_PROPERTY
Tether
SciTegic.value.DoubleValue
0.000

@<TRIPOS>MOLECULE
guest-s21_confgen4.mol2 : confsearch ligand conformer 564
          22          21           1
SMALL
USER_CHARGES
 
@<TRIPOS>ATOM
       1    C1      17.448766   15.977753   22.905484 C.2        1 MOL1         0.6145
       2    O1      16.819962   16.099922   23.938021 O.co2      1 MOL1        -0.6735
       3    O2      17.737781   14.903551   22.416592 O.co2      1 MOL1        -0.6735
       4    C2      17.919822   17.241978   22.195517 C.3        1 MOL1        -0.1985
       5    H1      17.176324   18.028690   22.371445 H          1 MOL1         0.0740
       6    H2      17.932094   17.042792   21.117176 H          1 MOL1         0.0740
       7    C3      19.317581   17.712275   22.668006 C.3        1 MOL1        -0.1882
       8    H3      19.291927   17.895532   23.751200 H          1 MOL1         0.0742
       9    H4      20.047296   16.908568   22.497476 H          1 MOL1         0.0742
      10    C4      19.771546   18.993001   21.934516 C.3        1 MOL1        -0.1880
      11    H5      19.032479   19.786565   22.105403 H          1 MOL1         0.0742
      12    H6      19.798393   18.806197   20.852278 H          1 MOL1         0.0742
      13    C5      21.165558   19.460494   22.412474 C.3        1 MOL1        -0.1880
      14    H7      21.129269   19.697000   23.484708 H          1 MOL1         0.0742
      15    H8      21.878195   18.631900   22.300598 H          1 MOL1         0.0742
      16    C6      21.705740   20.681171   21.631794 C.3        1 MOL1        -0.1856
      17    H9      21.749557   20.446089   20.559355 H          1 MOL1         0.0742
      18    H10     22.739786   20.873312   21.949703 H          1 MOL1         0.0742
      19    C7      20.872879   21.963118   21.848966 C.3        1 MOL1        -0.2871
      20    H11     20.789895   22.201503   22.917339 H          1 MOL1         0.0754
      21    H12     19.860439   21.857408   21.439704 H          1 MOL1         0.0754
      22    H13     21.345938   22.817529   21.347849 H          1 MOL1         0.0754
@<TRIPOS>BOND
    1     1     2    1
    2     1     3    2
    3     1     4    1
    4     4     5    1
    5     4     6    1
    6     4     7    1
    7     7     8    1
    8     7     9    1
    9     7    10    1
   10    10    11    1
   11    10    12    1
   12    10    13    1
   13    13    14    1
   14    13    15    1
   15    13    16    1
   16    16    17    1
   17    16    18    1
   18    16    19    1
   19    19    20    1
   20    19    21    1
   21    19    22    1
@<TRIPOS>SUBSTRUCTURE
       1 MOL1            1 RESIDUE      1      MOL     
@<SCITEGIC>MOL_PROPERTY
VConf Rank
SciTegic.value.IntegerValue
564

@<SCITEGIC>MOL_PROPERTY
Conf_Id
SciTegic.value.IntegerValue
38

@<SCITEGIC>MOL_PROPERTY
Delta U+W
SciTegic.value.DoubleValue
-0.439

@<SCITEGIC>MOL_PROPERTY
U+W
SciTegic.value.DoubleValue
-53.598

@<SCITEGIC>MOL_PROPERTY
Grad RMS
SciTegic.value.DoubleValue
0.000000

@<SCITEGIC>MOL_PROPERTY
U
SciTegic.value.DoubleValue
6.751

@<SCITEGIC>MOL_PROPERTY
W
SciTegic.value.DoubleValue
-60.350

@<SCITEGIC>MOL_PROPERTY
W(PB)
SciTegic.value.DoubleValue
-62.659

@<SCITEGIC>MOL_PROPERTY
W(SA)
SciTegic.value.DoubleValue
2.309

@<SCITEGIC>MOL_PROPERTY
Valence
SciTegic.value.DoubleValue
7.602

@<SCITEGIC>MOL_PROPERTY
Coulomb
SciTegic.value.DoubleValue
-1.744

@<SCITEGIC>MOL_PROPERTY
VdW
SciTegic.value.DoubleValue
0.893

@<SCITEGIC>MOL_PROPERTY
VdW6
SciTegic.value.DoubleValue
-7.110

@<SCITEGIC>MOL_PROPERTY
VdW12
SciTegic.value.DoubleValue
8.004

@<SCITEGIC>MOL_PROPERTY
Bond
SciTegic.value.DoubleValue
0.131

@<SCITEGIC>MOL_PROPERTY
Angle
SciTegic.value.DoubleValue
2.489

@<SCITEGIC>MOL_PROPERTY
Pdih
SciTegic.value.DoubleValue
4.981

@<SCITEGIC>MOL_PROPERTY
Idih
SciTegic.value.DoubleValue
0.001

@<SCITEGIC>MOL_PROPERTY
Tether
SciTegic.value.DoubleValue
0.000

@<TRIPOS>MOLECULE
guest-s21_confgen4.mol2 : confsearch ligand conformer 565
          22          21           1
SMALL
USER_CHARGES
 
@<TRIPOS>ATOM
       1    C1      16.496852   18.008155   23.576591 C.2        1 MOL1         0.6145
       2    O1      16.027921   16.893952   23.453236 O.co2      1 MOL1        -0.6735
       3    O2      15.829667   18.996900   23.808496 O.co2      1 MOL1        -0.6735
       4    C2      18.002563   18.178238   23.408679 C.3        1 MOL1        -0.1985
       5    H1      18.489541   17.260421   23.759223 H          1 MOL1         0.0740
       6    H2      18.321407   18.989873   24.072040 H          1 MOL1         0.0740
       7    C3      18.412529   18.475030   21.942578 C.3        1 MOL1        -0.1882
       8    H3      17.992699   17.692377   21.295550 H          1 MOL1         0.0742
       9    H4      17.958388   19.421524   21.618235 H          1 MOL1         0.0742
      10    C4      19.943656   18.527538   21.724370 C.3        1 MOL1        -0.1880
      11    H5      20.130369   18.598548   20.645285 H          1 MOL1         0.0742
      12    H6      20.395393   17.583235   22.057378 H          1 MOL1         0.0742
      13    C5      20.627250   19.716355   22.443700 C.3        1 MOL1        -0.1880
      14    H7      20.174186   20.660473   22.111921 H          1 MOL1         0.0742
      15    H8      20.443917   19.644953   23.523223 H          1 MOL1         0.0742
      16    C6      22.156909   19.770939   22.221711 C.3        1 MOL1        -0.1856
      17    H9      22.612600   18.823726   22.541752 H          1 MOL1         0.0742
      18    H10     22.578181   20.551922   22.869662 H          1 MOL1         0.0742
      19    C7      22.555285   20.072714   20.760588 C.3        1 MOL1        -0.2871
      20    H11     22.262059   19.257557   20.087564 H          1 MOL1         0.0754
      21    H12     23.642874   20.195836   20.677473 H          1 MOL1         0.0754
      22    H13     22.082712   20.998573   20.407620 H          1 MOL1         0.0754
@<TRIPOS>BOND
    1     1     2    1
    2     1     3    2
    3     1     4    1
    4     4     5    1
    5     4     6    1
    6     4     7    1
    7     7     8    1
    8     7     9    1
    9     7    10    1
   10    10    11    1
   11    10    12    1
   12    10    13    1
   13    13    14    1
   14    13    15    1
   15    13    16    1
   16    16    17    1
   17    16    18    1
   18    16    19    1
   19    19    20    1
   20    19    21    1
   21    19    22    1
@<TRIPOS>SUBSTRUCTURE
       1 MOL1            1 RESIDUE      1      MOL     
@<SCITEGIC>MOL_PROPERTY
VConf Rank
SciTegic.value.IntegerValue
565

@<SCITEGIC>MOL_PROPERTY
Conf_Id
SciTegic.value.IntegerValue
60

@<SCITEGIC>MOL_PROPERTY
Delta U+W
SciTegic.value.DoubleValue
0.386

@<SCITEGIC>MOL_PROPERTY
U+W
SciTegic.value.DoubleValue
-52.773

@<SCITEGIC>MOL_PROPERTY
Grad RMS
SciTegic.value.DoubleValue
0.000000

@<SCITEGIC>MOL_PROPERTY
U
SciTegic.value.DoubleValue
7.689

@<SCITEGIC>MOL_PROPERTY
W
SciTegic.value.DoubleValue
-60.463

@<SCITEGIC>MOL_PROPERTY
W(PB)
SciTegic.value.DoubleValue
-62.772

@<SCITEGIC>MOL_PROPERTY
W(SA)
SciTegic.value.DoubleValue
2.309

@<SCITEGIC>MOL_PROPERTY
Valence
SciTegic.value.DoubleValue
8.197

@<SCITEGIC>MOL_PROPERTY
Coulomb
SciTegic.value.DoubleValue
-1.561

@<SCITEGIC>MOL_PROPERTY
VdW
SciTegic.value.DoubleValue
1.053

@<SCITEGIC>MOL_PROPERTY
VdW6
SciTegic.value.DoubleValue
-7.737

@<SCITEGIC>MOL_PROPERTY
VdW12
SciTegic.value.DoubleValue
8.790

@<SCITEGIC>MOL_PROPERTY
Bond
SciTegic.value.DoubleValue
0.181

@<SCITEGIC>MOL_PROPERTY
Angle
SciTegic.value.DoubleValue
2.780

@<SCITEGIC>MOL_PROPERTY
Pdih
SciTegic.value.DoubleValue
5.235

@<SCITEGIC>MOL_PROPERTY
Idih
SciTegic.value.DoubleValue
0.001

@<SCITEGIC>MOL_PROPERTY
Tether
SciTegic.value.DoubleValue
0.000

@<TRIPOS>MOLECULE
guest-s21_confgen4.mol2 : confsearch ligand conformer 566
          22          21           1
SMALL
USER_CHARGES
 
@<TRIPOS>ATOM
       1    C1      21.257579   16.870758   25.052370 C.2        1 MOL1         0.6145
       2    O1      20.936940   15.706648   24.916084 O.co2      1 MOL1        -0.6735
       3    O2      21.647824   17.342562   26.101975 O.co2      1 MOL1        -0.6735
       4    C2      21.142485   17.795657   23.845887 C.3        1 MOL1        -0.1985
       5    H1      21.358144   17.202293   22.950414 H          1 MOL1         0.0740
       6    H2      21.925138   18.559378   23.927124 H          1 MOL1         0.0740
       7    C3      19.748786   18.467368   23.736244 C.3        1 MOL1        -0.1882
       8    H3      18.977805   17.695395   23.606083 H          1 MOL1         0.0742
       9    H4      19.525896   18.970358   24.687437 H          1 MOL1         0.0742
      10    C4      19.647935   19.505518   22.593093 C.3        1 MOL1        -0.1880
      11    H5      20.425129   20.271093   22.721670 H          1 MOL1         0.0742
      12    H6      18.683974   20.021478   22.687390 H          1 MOL1         0.0742
      13    C5      19.759765   18.879012   21.181356 C.3        1 MOL1        -0.1880
      14    H7      20.724603   18.365399   21.084575 H          1 MOL1         0.0742
      15    H8      18.983707   18.112124   21.053607 H          1 MOL1         0.0742
      16    C6      19.654365   19.916414   20.039077 C.3        1 MOL1        -0.1856
      17    H9      19.879200   19.415135   19.087545 H          1 MOL1         0.0742
      18    H10     20.421829   20.691806   20.169689 H          1 MOL1         0.0742
      19    C7      18.261597   20.575043   19.933914 C.3        1 MOL1        -0.2871
      20    H11     17.474287   19.816138   19.837316 H          1 MOL1         0.0754
      21    H12     18.211684   21.227397   19.052517 H          1 MOL1         0.0754
      22    H13     18.040782   21.190906   20.814470 H          1 MOL1         0.0754
@<TRIPOS>BOND
    1     1     2    1
    2     1     3    2
    3     1     4    1
    4     4     5    1
    5     4     6    1
    6     4     7    1
    7     7     8    1
    8     7     9    1
    9     7    10    1
   10    10    11    1
   11    10    12    1
   12    10    13    1
   13    13    14    1
   14    13    15    1
   15    13    16    1
   16    16    17    1
   17    16    18    1
   18    16    19    1
   19    19    20    1
   20    19    21    1
   21    19    22    1
@<TRIPOS>SUBSTRUCTURE
       1 MOL1            1 RESIDUE      1      MOL     
@<SCITEGIC>MOL_PROPERTY
VConf Rank
SciTegic.value.IntegerValue
566

@<SCITEGIC>MOL_PROPERTY
Conf_Id
SciTegic.value.IntegerValue
28

@<SCITEGIC>MOL_PROPERTY
Delta U+W
SciTegic.value.DoubleValue
0.351

@<SCITEGIC>MOL_PROPERTY
U+W
SciTegic.value.DoubleValue
-52.808

@<SCITEGIC>MOL_PROPERTY
Grad RMS
SciTegic.value.DoubleValue
0.000000

@<SCITEGIC>MOL_PROPERTY
U
SciTegic.value.DoubleValue
7.689

@<SCITEGIC>MOL_PROPERTY
W
SciTegic.value.DoubleValue
-60.498

@<SCITEGIC>MOL_PROPERTY
W(PB)
SciTegic.value.DoubleValue
-62.768

@<SCITEGIC>MOL_PROPERTY
W(SA)
SciTegic.value.DoubleValue
2.270

@<SCITEGIC>MOL_PROPERTY
Valence
SciTegic.value.DoubleValue
8.197

@<SCITEGIC>MOL_PROPERTY
Coulomb
SciTegic.value.DoubleValue
-1.561

@<SCITEGIC>MOL_PROPERTY
VdW
SciTegic.value.DoubleValue
1.053

@<SCITEGIC>MOL_PROPERTY
VdW6
SciTegic.value.DoubleValue
-7.737

@<SCITEGIC>MOL_PROPERTY
VdW12
SciTegic.value.DoubleValue
8.791

@<SCITEGIC>MOL_PROPERTY
Bond
SciTegic.value.DoubleValue
0.181

@<SCITEGIC>MOL_PROPERTY
Angle
SciTegic.value.DoubleValue
2.780

@<SCITEGIC>MOL_PROPERTY
Pdih
SciTegic.value.DoubleValue
5.235

@<SCITEGIC>MOL_PROPERTY
Idih
SciTegic.value.DoubleValue
0.001

@<SCITEGIC>MOL_PROPERTY
Tether
SciTegic.value.DoubleValue
0.000

@<TRIPOS>MOLECULE
guest-s21_confgen4.mol2 : confsearch ligand conformer 567
          22          21           1
SMALL
USER_CHARGES
 
@<TRIPOS>ATOM
       1    C1      19.909595   15.702459   20.318641 C.2        1 MOL1         0.6145
       2    O1      18.953609   15.500269   19.596366 O.co2      1 MOL1        -0.6735
       3    O2      21.057736   15.468962   19.996604 O.co2      1 MOL1        -0.6735
       4    C2      19.656128   16.300812   21.697789 C.3        1 MOL1        -0.1985
       5    H1      20.419173   15.912653   22.383169 H          1 MOL1         0.0740
       6    H2      18.684921   15.936543   22.053712 H          1 MOL1         0.0740
       7    C3      19.678856   17.849283   21.695156 C.3        1 MOL1        -0.1882
       8    H3      20.651931   18.188884   21.316652 H          1 MOL1         0.0742
       9    H4      18.915789   18.221972   20.997921 H          1 MOL1         0.0742
      10    C4      19.424035   18.428728   23.105961 C.3        1 MOL1        -0.1880
      11    H5      20.216817   18.098620   23.791173 H          1 MOL1         0.0742
      12    H6      18.483777   18.016185   23.496709 H          1 MOL1         0.0742
      13    C5      19.328658   19.972710   23.130077 C.3        1 MOL1        -0.1880
      14    H7      18.533260   20.303033   22.448050 H          1 MOL1         0.0742
      15    H8      19.023798   20.286783   24.137721 H          1 MOL1         0.0742
      16    C6      20.654296   20.678116   22.764867 C.3        1 MOL1        -0.1856
      17    H9      20.937800   20.439591   21.731383 H          1 MOL1         0.0742
      18    H10     21.461377   20.308800   23.412503 H          1 MOL1         0.0742
      19    C7      20.539416   22.208727   22.912337 C.3        1 MOL1        -0.2871
      20    H11     20.294115   22.487033   23.945647 H          1 MOL1         0.0754
      21    H12     19.756819   22.608678   22.254335 H          1 MOL1         0.0754
      22    H13     21.486990   22.695051   22.646516 H          1 MOL1         0.0754
@<TRIPOS>BOND
    1     1     2    1
    2     1     3    2
    3     1     4    1
    4     4     5    1
    5     4     6    1
    6     4     7    1
    7     7     8    1
    8     7     9    1
    9     7    10    1
   10    10    11    1
   11    10    12    1
   12    10    13    1
   13    13    14    1
   14    13    15    1
   15    13    16    1
   16    16    17    1
   17    16    18    1
   18    16    19    1
   19    19    20    1
   20    19    21    1
   21    19    22    1
@<TRIPOS>SUBSTRUCTURE
       1 MOL1            1 RESIDUE      1      MOL     
@<SCITEGIC>MOL_PROPERTY
VConf Rank
SciTegic.value.IntegerValue
567

@<SCITEGIC>MOL_PROPERTY
Conf_Id
SciTegic.value.IntegerValue
50

@<SCITEGIC>MOL_PROPERTY
Delta U+W
SciTegic.value.DoubleValue
-0.486

@<SCITEGIC>MOL_PROPERTY
U+W
SciTegic.value.DoubleValue
-53.646

@<SCITEGIC>MOL_PROPERTY
Grad RMS
SciTegic.value.DoubleValue
0.000000

@<SCITEGIC>MOL_PROPERTY
U
SciTegic.value.DoubleValue
7.026

@<SCITEGIC>MOL_PROPERTY
W
SciTegic.value.DoubleValue
-60.672

@<SCITEGIC>MOL_PROPERTY
W(PB)
SciTegic.value.DoubleValue
-62.964

@<SCITEGIC>MOL_PROPERTY
W(SA)
SciTegic.value.DoubleValue
2.292

@<SCITEGIC>MOL_PROPERTY
Valence
SciTegic.value.DoubleValue
7.637

@<SCITEGIC>MOL_PROPERTY
Coulomb
SciTegic.value.DoubleValue
-1.488

@<SCITEGIC>MOL_PROPERTY
VdW
SciTegic.value.DoubleValue
0.877

@<SCITEGIC>MOL_PROPERTY
VdW6
SciTegic.value.DoubleValue
-7.165

@<SCITEGIC>MOL_PROPERTY
VdW12
SciTegic.value.DoubleValue
8.043

@<SCITEGIC>MOL_PROPERTY
Bond
SciTegic.value.DoubleValue
0.134

@<SCITEGIC>MOL_PROPERTY
Angle
SciTegic.value.DoubleValue
2.513

@<SCITEGIC>MOL_PROPERTY
Pdih
SciTegic.value.DoubleValue
4.990

@<SCITEGIC>MOL_PROPERTY
Idih
SciTegic.value.DoubleValue
0.001

@<SCITEGIC>MOL_PROPERTY
Tether
SciTegic.value.DoubleValue
0.000

@<TRIPOS>MOLECULE
guest-s21_confgen4.mol2 : confsearch ligand conformer 568
          22          21           1
SMALL
USER_CHARGES
 
@<TRIPOS>ATOM
       1    C1      17.235791   17.385426   24.499528 C.2        1 MOL1         0.6145
       2    O1      17.356245   17.580134   25.692864 O.co2      1 MOL1        -0.6735
       3    O2      16.964810   16.303151   24.018168 O.co2      1 MOL1        -0.6735
       4    C2      17.457025   18.559577   23.552557 C.3        1 MOL1        -0.1985
       5    H1      17.127533   19.473710   24.060899 H          1 MOL1         0.0740
       6    H2      16.806866   18.421123   22.680334 H          1 MOL1         0.0740
       7    C3      18.932088   18.699528   23.102115 C.3        1 MOL1        -0.1882
       8    H3      19.570776   18.828301   23.986874 H          1 MOL1         0.0742
       9    H4      19.244010   17.766386   22.614858 H          1 MOL1         0.0742
      10    C4      19.126714   19.894181   22.139829 C.3        1 MOL1        -0.1880
      11    H5      18.738015   20.804043   22.617351 H          1 MOL1         0.0742
      12    H6      18.528325   19.739968   21.231459 H          1 MOL1         0.0742
      13    C5      20.604218   20.138191   21.751240 C.3        1 MOL1        -0.1880
      14    H7      20.662732   21.071376   21.174466 H          1 MOL1         0.0742
      15    H8      21.202269   20.296393   22.659115 H          1 MOL1         0.0742
      16    C6      21.219116   18.992997   20.915344 C.3        1 MOL1        -0.1856
      17    H9      20.591917   18.799091   20.034306 H          1 MOL1         0.0742
      18    H10     21.242376   18.065822   21.502852 H          1 MOL1         0.0742
      19    C7      22.652191   19.332932   20.458775 C.3        1 MOL1        -0.2871
      20    H11     23.308547   19.505039   21.321887 H          1 MOL1         0.0754
      21    H12     22.662346   20.236068   19.834596 H          1 MOL1         0.0754
      22    H13     23.075957   18.509320   19.869576 H          1 MOL1         0.0754
@<TRIPOS>BOND
    1     1     2    1
    2     1     3    2
    3     1     4    1
    4     4     5    1
    5     4     6    1
    6     4     7    1
    7     7     8    1
    8     7     9    1
    9     7    10    1
   10    10    11    1
   11    10    12    1
   12    10    13    1
   13    13    14    1
   14    13    15    1
   15    13    16    1
   16    16    17    1
   17    16    18    1
   18    16    19    1
   19    19    20    1
   20    19    21    1
   21    19    22    1
@<TRIPOS>SUBSTRUCTURE
       1 MOL1            1 RESIDUE      1      MOL     
@<SCITEGIC>MOL_PROPERTY
VConf Rank
SciTegic.value.IntegerValue
568

@<SCITEGIC>MOL_PROPERTY
Conf_Id
SciTegic.value.IntegerValue
51

@<SCITEGIC>MOL_PROPERTY
Delta U+W
SciTegic.value.DoubleValue
-0.517

@<SCITEGIC>MOL_PROPERTY
U+W
SciTegic.value.DoubleValue
-53.677

@<SCITEGIC>MOL_PROPERTY
Grad RMS
SciTegic.value.DoubleValue
0.000000

@<SCITEGIC>MOL_PROPERTY
U
SciTegic.value.DoubleValue
7.026

@<SCITEGIC>MOL_PROPERTY
W
SciTegic.value.DoubleValue
-60.703

@<SCITEGIC>MOL_PROPERTY
W(PB)
SciTegic.value.DoubleValue
-63.007

@<SCITEGIC>MOL_PROPERTY
W(SA)
SciTegic.value.DoubleValue
2.304

@<SCITEGIC>MOL_PROPERTY
Valence
SciTegic.value.DoubleValue
7.638

@<SCITEGIC>MOL_PROPERTY
Coulomb
SciTegic.value.DoubleValue
-1.488

@<SCITEGIC>MOL_PROPERTY
VdW
SciTegic.value.DoubleValue
0.877

@<SCITEGIC>MOL_PROPERTY
VdW6
SciTegic.value.DoubleValue
-7.165

@<SCITEGIC>MOL_PROPERTY
VdW12
SciTegic.value.DoubleValue
8.042

@<SCITEGIC>MOL_PROPERTY
Bond
SciTegic.value.DoubleValue
0.134

@<SCITEGIC>MOL_PROPERTY
Angle
SciTegic.value.DoubleValue
2.513

@<SCITEGIC>MOL_PROPERTY
Pdih
SciTegic.value.DoubleValue
4.990

@<SCITEGIC>MOL_PROPERTY
Idih
SciTegic.value.DoubleValue
0.001

@<SCITEGIC>MOL_PROPERTY
Tether
SciTegic.value.DoubleValue
0.000

@<TRIPOS>MOLECULE
guest-s21_confgen4.mol2 : confsearch ligand conformer 569
          22          21           1
SMALL
USER_CHARGES
 
@<TRIPOS>ATOM
       1    C1      17.131248   17.411319   21.008006 C.2        1 MOL1         0.6145
       2    O1      16.120921   17.667812   21.632788 O.co2      1 MOL1        -0.6735
       3    O2      17.301932   17.726500   19.846834 O.co2      1 MOL1        -0.6735
       4    C2      18.237087   16.634257   21.716827 C.3        1 MOL1        -0.1985
       5    H1      18.896284   16.193419   20.959181 H          1 MOL1         0.0740
       6    H2      17.763112   15.800901   22.248717 H          1 MOL1         0.0740
       7    C3      19.063608   17.483848   22.716853 C.3        1 MOL1        -0.1882
       8    H3      18.386849   17.941157   23.452052 H          1 MOL1         0.0742
       9    H4      19.736864   16.820565   23.276608 H          1 MOL1         0.0742
      10    C4      19.895846   18.582003   22.017552 C.3        1 MOL1        -0.1880
      11    H5      19.227419   19.260092   21.469092 H          1 MOL1         0.0742
      12    H6      20.561070   18.121045   21.274578 H          1 MOL1         0.0742
      13    C5      20.734209   19.394422   23.027787 C.3        1 MOL1        -0.1880
      14    H7      20.068288   19.855080   23.770384 H          1 MOL1         0.0742
      15    H8      21.405553   18.718905   23.575538 H          1 MOL1         0.0742
      16    C6      21.565007   20.491806   22.330243 C.3        1 MOL1        -0.1856
      17    H9      20.896521   21.170616   21.782661 H          1 MOL1         0.0742
      18    H10     22.233650   20.034550   21.587750 H          1 MOL1         0.0742
      19    C7      22.400354   21.301388   23.342236 C.3        1 MOL1        -0.2871
      20    H11     21.753636   21.795859   24.078887 H          1 MOL1         0.0754
      21    H12     22.984324   22.076672   22.829400 H          1 MOL1         0.0754
      22    H13     23.100851   20.651212   23.882577 H          1 MOL1         0.0754
@<TRIPOS>BOND
    1     1     2    1
    2     1     3    2
    3     1     4    1
    4     4     5    1
    5     4     6    1
    6     4     7    1
    7     7     8    1
    8     7     9    1
    9     7    10    1
   10    10    11    1
   11    10    12    1
   12    10    13    1
   13    13    14    1
   14    13    15    1
   15    13    16    1
   16    16    17    1
   17    16    18    1
   18    16    19    1
   19    19    20    1
   20    19    21    1
   21    19    22    1
@<TRIPOS>SUBSTRUCTURE
       1 MOL1            1 RESIDUE      1      MOL     
@<SCITEGIC>MOL_PROPERTY
VConf Rank
SciTegic.value.IntegerValue
569

@<SCITEGIC>MOL_PROPERTY
Conf_Id
SciTegic.value.IntegerValue
43

@<SCITEGIC>MOL_PROPERTY
Delta U+W
SciTegic.value.DoubleValue
-0.129

@<SCITEGIC>MOL_PROPERTY
U+W
SciTegic.value.DoubleValue
-53.289

@<SCITEGIC>MOL_PROPERTY
Grad RMS
SciTegic.value.DoubleValue
0.000000

@<SCITEGIC>MOL_PROPERTY
U
SciTegic.value.DoubleValue
7.937

@<SCITEGIC>MOL_PROPERTY
W
SciTegic.value.DoubleValue
-61.225

@<SCITEGIC>MOL_PROPERTY
W(PB)
SciTegic.value.DoubleValue
-63.523

@<SCITEGIC>MOL_PROPERTY
W(SA)
SciTegic.value.DoubleValue
2.297

@<SCITEGIC>MOL_PROPERTY
Valence
SciTegic.value.DoubleValue
7.358

@<SCITEGIC>MOL_PROPERTY
Coulomb
SciTegic.value.DoubleValue
-0.022

@<SCITEGIC>MOL_PROPERTY
VdW
SciTegic.value.DoubleValue
0.601

@<SCITEGIC>MOL_PROPERTY
VdW6
SciTegic.value.DoubleValue
-7.363

@<SCITEGIC>MOL_PROPERTY
VdW12
SciTegic.value.DoubleValue
7.964

@<SCITEGIC>MOL_PROPERTY
Bond
SciTegic.value.DoubleValue
0.121

@<SCITEGIC>MOL_PROPERTY
Angle
SciTegic.value.DoubleValue
2.425

@<SCITEGIC>MOL_PROPERTY
Pdih
SciTegic.value.DoubleValue
4.811

@<SCITEGIC>MOL_PROPERTY
Idih
SciTegic.value.DoubleValue
0.000

@<SCITEGIC>MOL_PROPERTY
Tether
SciTegic.value.DoubleValue
0.000

@<TRIPOS>MOLECULE
guest-s21_confgen4.mol2 : confsearch ligand conformer 570
          22          21           1
SMALL
USER_CHARGES
 
@<TRIPOS>ATOM
       1    C1      19.824973   17.927368   25.618537 C.2        1 MOL1         0.6145
       2    O1      20.659121   17.060084   25.788594 O.co2      1 MOL1        -0.6735
       3    O2      18.634421   17.758955   25.794643 O.co2      1 MOL1        -0.6735
       4    C2      20.302925   19.307969   25.177364 C.3        1 MOL1        -0.1985
       5    H1      21.165484   19.571088   25.800903 H          1 MOL1         0.0740
       6    H2      19.515798   20.038651   25.399714 H          1 MOL1         0.0740
       7    C3      20.701653   19.389026   23.680887 C.3        1 MOL1        -0.1882
       8    H3      21.159382   20.368446   23.486563 H          1 MOL1         0.0742
       9    H4      21.470003   18.632876   23.467512 H          1 MOL1         0.0742
      10    C4      19.496896   19.192820   22.733441 C.3        1 MOL1        -0.1880
      11    H5      18.726371   19.942617   22.959516 H          1 MOL1         0.0742
      12    H6      19.043774   18.207482   22.910064 H          1 MOL1         0.0742
      13    C5      19.910859   19.308611   21.250645 C.3        1 MOL1        -0.1880
      14    H7      20.361685   20.294247   21.070826 H          1 MOL1         0.0742
      15    H8      20.681350   18.558480   21.025351 H          1 MOL1         0.0742
      16    C6      18.708375   19.112014   20.303843 C.3        1 MOL1        -0.1856
      17    H9      17.936152   19.861782   20.525160 H          1 MOL1         0.0742
      18    H10     18.255868   18.126195   20.479633 H          1 MOL1         0.0742
      19    C7      19.125685   19.227696   18.824036 C.3        1 MOL1        -0.2871
      20    H11     19.553238   20.216593   18.612663 H          1 MOL1         0.0754
      21    H12     18.259051   19.085331   18.165430 H          1 MOL1         0.0754
      22    H13     19.875323   18.467905   18.566818 H          1 MOL1         0.0754
@<TRIPOS>BOND
    1     1     2    1
    2     1     3    2
    3     1     4    1
    4     4     5    1
    5     4     6    1
    6     4     7    1
    7     7     8    1
    8     7     9    1
    9     7    10    1
   10    10    11    1
   11    10    12    1
   12    10    13    1
   13    13    14    1
   14    13    15    1
   15    13    16    1
   16    16    17    1
   17    16    18    1
   18    16    19    1
   19    19    20    1
   20    19    21    1
   21    19    22    1
@<TRIPOS>SUBSTRUCTURE
       1 MOL1            1 RESIDUE      1      MOL     
@<SCITEGIC>MOL_PROPERTY
VConf Rank
SciTegic.value.IntegerValue
570

@<SCITEGIC>MOL_PROPERTY
Conf_Id
SciTegic.value.IntegerValue
44

@<SCITEGIC>MOL_PROPERTY
Delta U+W
SciTegic.value.DoubleValue
-0.155

@<SCITEGIC>MOL_PROPERTY
U+W
SciTegic.value.DoubleValue
-53.314

@<SCITEGIC>MOL_PROPERTY
Grad RMS
SciTegic.value.DoubleValue
0.000000

@<SCITEGIC>MOL_PROPERTY
U
SciTegic.value.DoubleValue
7.937

@<SCITEGIC>MOL_PROPERTY
W
SciTegic.value.DoubleValue
-61.252

@<SCITEGIC>MOL_PROPERTY
W(PB)
SciTegic.value.DoubleValue
-63.556

@<SCITEGIC>MOL_PROPERTY
W(SA)
SciTegic.value.DoubleValue
2.304

@<SCITEGIC>MOL_PROPERTY
Valence
SciTegic.value.DoubleValue
7.358

@<SCITEGIC>MOL_PROPERTY
Coulomb
SciTegic.value.DoubleValue
-0.021

@<SCITEGIC>MOL_PROPERTY
VdW
SciTegic.value.DoubleValue
0.600

@<SCITEGIC>MOL_PROPERTY
VdW6
SciTegic.value.DoubleValue
-7.363

@<SCITEGIC>MOL_PROPERTY
VdW12
SciTegic.value.DoubleValue
7.964

@<SCITEGIC>MOL_PROPERTY
Bond
SciTegic.value.DoubleValue
0.121

@<SCITEGIC>MOL_PROPERTY
Angle
SciTegic.value.DoubleValue
2.425

@<SCITEGIC>MOL_PROPERTY
Pdih
SciTegic.value.DoubleValue
4.811

@<SCITEGIC>MOL_PROPERTY
Idih
SciTegic.value.DoubleValue
0.001

@<SCITEGIC>MOL_PROPERTY
Tether
SciTegic.value.DoubleValue
0.000

@<TRIPOS>MOLECULE
guest-s21_confgen4.mol2 : confsearch ligand conformer 571
          22          21           1
SMALL
USER_CHARGES
 
@<TRIPOS>ATOM
       1    C1      20.785283   17.157735   19.488377 C.2        1 MOL1         0.6145
       2    O1      19.883327   17.025526   18.684687 O.co2      1 MOL1        -0.6735
       3    O2      21.464627   16.235385   19.894122 O.co2      1 MOL1        -0.6735
       4    C2      21.092354   18.562386   20.000211 C.3        1 MOL1        -0.1985
       5    H1      21.107744   19.230847   19.131330 H          1 MOL1         0.0740
       6    H2      22.104345   18.568120   20.422977 H          1 MOL1         0.0740
       7    C3      20.073724   19.092584   21.042760 C.3        1 MOL1        -0.1882
       8    H3      20.287907   20.152464   21.229698 H          1 MOL1         0.0742
       9    H4      19.060875   19.042947   20.619589 H          1 MOL1         0.0742
      10    C4      20.124764   18.307280   22.375390 C.3        1 MOL1        -0.1880
      11    H5      21.126444   18.393167   22.818180 H          1 MOL1         0.0742
      12    H6      19.968064   17.239341   22.170593 H          1 MOL1         0.0742
      13    C5      19.062558   18.765950   23.402603 C.3        1 MOL1        -0.1880
      14    H7      18.061043   18.680097   22.959304 H          1 MOL1         0.0742
      15    H8      19.084160   18.075070   24.256489 H          1 MOL1         0.0742
      16    C6      19.282944   20.206107   23.918160 C.3        1 MOL1        -0.1856
      17    H9      19.185329   20.923097   23.092562 H          1 MOL1         0.0742
      18    H10     20.303753   20.306692   24.311894 H          1 MOL1         0.0742
      19    C7      18.270251   20.572461   25.021780 C.3        1 MOL1        -0.2871
      20    H11     17.240436   20.506483   24.646931 H          1 MOL1         0.0754
      21    H12     18.437377   21.598329   25.374948 H          1 MOL1         0.0754
      22    H13     18.365747   19.898084   25.882857 H          1 MOL1         0.0754
@<TRIPOS>BOND
    1     1     2    1
    2     1     3    2
    3     1     4    1
    4     4     5    1
    5     4     6    1
    6     4     7    1
    7     7     8    1
    8     7     9    1
    9     7    10    1
   10    10    11    1
   11    10    12    1
   12    10    13    1
   13    13    14    1
   14    13    15    1
   15    13    16    1
   16    16    17    1
   17    16    18    1
   18    16    19    1
   19    19    20    1
   20    19    21    1
   21    19    22    1
@<TRIPOS>SUBSTRUCTURE
       1 MOL1            1 RESIDUE      1      MOL     
@<SCITEGIC>MOL_PROPERTY
VConf Rank
SciTegic.value.IntegerValue
571

@<SCITEGIC>MOL_PROPERTY
Conf_Id
SciTegic.value.IntegerValue
53

@<SCITEGIC>MOL_PROPERTY
Delta U+W
SciTegic.value.DoubleValue
0.723

@<SCITEGIC>MOL_PROPERTY
U+W
SciTegic.value.DoubleValue
-52.436

@<SCITEGIC>MOL_PROPERTY
Grad RMS
SciTegic.value.DoubleValue
0.000000

@<SCITEGIC>MOL_PROPERTY
U
SciTegic.value.DoubleValue
8.587

@<SCITEGIC>MOL_PROPERTY
W
SciTegic.value.DoubleValue
-61.022

@<SCITEGIC>MOL_PROPERTY
W(PB)
SciTegic.value.DoubleValue
-63.285

@<SCITEGIC>MOL_PROPERTY
W(SA)
SciTegic.value.DoubleValue
2.263

@<SCITEGIC>MOL_PROPERTY
Valence
SciTegic.value.DoubleValue
7.933

@<SCITEGIC>MOL_PROPERTY
Coulomb
SciTegic.value.DoubleValue
-0.124

@<SCITEGIC>MOL_PROPERTY
VdW
SciTegic.value.DoubleValue
0.778

@<SCITEGIC>MOL_PROPERTY
VdW6
SciTegic.value.DoubleValue
-7.981

@<SCITEGIC>MOL_PROPERTY
VdW12
SciTegic.value.DoubleValue
8.759

@<SCITEGIC>MOL_PROPERTY
Bond
SciTegic.value.DoubleValue
0.160

@<SCITEGIC>MOL_PROPERTY
Angle
SciTegic.value.DoubleValue
2.698

@<SCITEGIC>MOL_PROPERTY
Pdih
SciTegic.value.DoubleValue
5.074

@<SCITEGIC>MOL_PROPERTY
Idih
SciTegic.value.DoubleValue
0.001

@<SCITEGIC>MOL_PROPERTY
Tether
SciTegic.value.DoubleValue
0.000

@<TRIPOS>MOLECULE
guest-s21_confgen4.mol2 : confsearch ligand conformer 572
          22          21           1
SMALL
USER_CHARGES
 
@<TRIPOS>ATOM
       1    C1      16.943156   18.586060   20.589076 C.2        1 MOL1         0.6145
       2    O1      16.054424   19.226823   21.114575 O.co2      1 MOL1        -0.6735
       3    O2      16.806736   17.975862   19.547141 O.co2      1 MOL1        -0.6735
       4    C2      18.310828   18.564517   21.262134 C.3        1 MOL1        -0.1985
       5    H1      18.786618   17.602640   21.036973 H          1 MOL1         0.0740
       6    H2      18.147779   18.607506   22.344860 H          1 MOL1         0.0740
       7    C3      19.221767   19.732863   20.807939 C.3        1 MOL1        -0.1882
       8    H3      19.255428   19.746410   19.709711 H          1 MOL1         0.0742
       9    H4      18.766813   20.685302   21.113117 H          1 MOL1         0.0742
      10    C4      20.673833   19.655934   21.342964 C.3        1 MOL1        -0.1880
      11    H5      21.228192   20.503512   20.917236 H          1 MOL1         0.0742
      12    H6      21.169636   18.753195   20.960607 H          1 MOL1         0.0742
      13    C5      20.797879   19.724711   22.886205 C.3        1 MOL1        -0.1880
      14    H7      21.701824   20.296304   23.137515 H          1 MOL1         0.0742
      15    H8      19.953762   20.287259   23.308068 H          1 MOL1         0.0742
      16    C6      20.907159   18.334907   23.554978 C.3        1 MOL1        -0.1856
      17    H9      21.788644   17.807723   23.164780 H          1 MOL1         0.0742
      18    H10     20.036376   17.716741   23.306032 H          1 MOL1         0.0742
      19    C7      21.022460   18.452796   25.087995 C.3        1 MOL1        -0.2871
      20    H11     21.909857   19.033455   25.372061 H          1 MOL1         0.0754
      21    H12     21.106248   17.459232   25.547170 H          1 MOL1         0.0754
      22    H13     20.138570   18.948117   25.510789 H          1 MOL1         0.0754
@<TRIPOS>BOND
    1     1     2    1
    2     1     3    2
    3     1     4    1
    4     4     5    1
    5     4     6    1
    6     4     7    1
    7     7     8    1
    8     7     9    1
    9     7    10    1
   10    10    11    1
   11    10    12    1
   12    10    13    1
   13    13    14    1
   14    13    15    1
   15    13    16    1
   16    16    17    1
   17    16    18    1
   18    16    19    1
   19    19    20    1
   20    19    21    1
   21    19    22    1
@<TRIPOS>SUBSTRUCTURE
       1 MOL1            1 RESIDUE      1      MOL     
@<SCITEGIC>MOL_PROPERTY
VConf Rank
SciTegic.value.IntegerValue
572

@<SCITEGIC>MOL_PROPERTY
Conf_Id
SciTegic.value.IntegerValue
5

@<SCITEGIC>MOL_PROPERTY
Delta U+W
SciTegic.value.DoubleValue
2.167

@<SCITEGIC>MOL_PROPERTY
U+W
SciTegic.value.DoubleValue
-50.993

@<SCITEGIC>MOL_PROPERTY
Grad RMS
SciTegic.value.DoubleValue
0.000000

@<SCITEGIC>MOL_PROPERTY
U
SciTegic.value.DoubleValue
10.045

@<SCITEGIC>MOL_PROPERTY
W
SciTegic.value.DoubleValue
-61.037

@<SCITEGIC>MOL_PROPERTY
W(PB)
SciTegic.value.DoubleValue
-63.303

@<SCITEGIC>MOL_PROPERTY
W(SA)
SciTegic.value.DoubleValue
2.266

@<SCITEGIC>MOL_PROPERTY
Valence
SciTegic.value.DoubleValue
10.100

@<SCITEGIC>MOL_PROPERTY
Coulomb
SciTegic.value.DoubleValue
-0.883

@<SCITEGIC>MOL_PROPERTY
VdW
SciTegic.value.DoubleValue
0.828

@<SCITEGIC>MOL_PROPERTY
VdW6
SciTegic.value.DoubleValue
-8.177

@<SCITEGIC>MOL_PROPERTY
VdW12
SciTegic.value.DoubleValue
9.005

@<SCITEGIC>MOL_PROPERTY
Bond
SciTegic.value.DoubleValue
0.182

@<SCITEGIC>MOL_PROPERTY
Angle
SciTegic.value.DoubleValue
2.988

@<SCITEGIC>MOL_PROPERTY
Pdih
SciTegic.value.DoubleValue
6.930

@<SCITEGIC>MOL_PROPERTY
Idih
SciTegic.value.DoubleValue
0.001

@<SCITEGIC>MOL_PROPERTY
Tether
SciTegic.value.DoubleValue
0.000

@<TRIPOS>MOLECULE
guest-s21_confgen4.mol2 : confsearch ligand conformer 573
          22          21           1
SMALL
USER_CHARGES
 
@<TRIPOS>ATOM
       1    C1      22.779149   19.414100   20.775776 C.2        1 MOL1         0.6145
       2    O1      22.991558   18.482877   20.024593 O.co2      1 MOL1        -0.6735
       3    O2      23.562746   20.325213   20.955864 O.co2      1 MOL1        -0.6735
       4    C2      21.467389   19.428728   21.552354 C.3        1 MOL1        -0.1985
       5    H1      20.701247   18.970531   20.916893 H          1 MOL1         0.0740
       6    H2      21.179735   20.474041   21.716234 H          1 MOL1         0.0740
       7    C3      21.562712   18.680150   22.905753 C.3        1 MOL1        -0.1882
       8    H3      21.772583   17.618240   22.717194 H          1 MOL1         0.0742
       9    H4      22.425786   19.069608   23.463290 H          1 MOL1         0.0742
      10    C4      20.302503   18.810045   23.797758 C.3        1 MOL1        -0.1880
      11    H5      20.141841   19.861336   24.073310 H          1 MOL1         0.0742
      12    H6      20.508521   18.283164   24.739511 H          1 MOL1         0.0742
      13    C5      19.011716   18.212111   23.182896 C.3        1 MOL1        -0.1880
      14    H7      19.265531   17.397748   22.490542 H          1 MOL1         0.0742
      15    H8      18.421765   17.754826   23.989023 H          1 MOL1         0.0742
      16    C6      18.125267   19.263550   22.476183 C.3        1 MOL1        -0.1856
      17    H9      18.684984   19.768440   21.679836 H          1 MOL1         0.0742
      18    H10     17.832467   20.040572   23.195697 H          1 MOL1         0.0742
      19    C7      16.857823   18.622775   21.875913 C.3        1 MOL1        -0.2871
      20    H11     17.119236   17.862876   21.127866 H          1 MOL1         0.0754
      21    H12     16.236014   19.382279   21.384446 H          1 MOL1         0.0754
      22    H13     16.252894   18.142367   22.656043 H          1 MOL1         0.0754
@<TRIPOS>BOND
    1     1     2    1
    2     1     3    2
    3     1     4    1
    4     4     5    1
    5     4     6    1
    6     4     7    1
    7     7     8    1
    8     7     9    1
    9     7    10    1
   10    10    11    1
   11    10    12    1
   12    10    13    1
   13    13    14    1
   14    13    15    1
   15    13    16    1
   16    16    17    1
   17    16    18    1
   18    16    19    1
   19    19    20    1
   20    19    21    1
   21    19    22    1
@<TRIPOS>SUBSTRUCTURE
       1 MOL1            1 RESIDUE      1      MOL     
@<SCITEGIC>MOL_PROPERTY
VConf Rank
SciTegic.value.IntegerValue
573

@<SCITEGIC>MOL_PROPERTY
Conf_Id
SciTegic.value.IntegerValue
6

@<SCITEGIC>MOL_PROPERTY
Delta U+W
SciTegic.value.DoubleValue
2.118

@<SCITEGIC>MOL_PROPERTY
U+W
SciTegic.value.DoubleValue
-51.042

@<SCITEGIC>MOL_PROPERTY
Grad RMS
SciTegic.value.DoubleValue
0.000000

@<SCITEGIC>MOL_PROPERTY
U
SciTegic.value.DoubleValue
10.045

@<SCITEGIC>MOL_PROPERTY
W
SciTegic.value.DoubleValue
-61.086

@<SCITEGIC>MOL_PROPERTY
W(PB)
SciTegic.value.DoubleValue
-63.356

@<SCITEGIC>MOL_PROPERTY
W(SA)
SciTegic.value.DoubleValue
2.270

@<SCITEGIC>MOL_PROPERTY
Valence
SciTegic.value.DoubleValue
10.100

@<SCITEGIC>MOL_PROPERTY
Coulomb
SciTegic.value.DoubleValue
-0.883

@<SCITEGIC>MOL_PROPERTY
VdW
SciTegic.value.DoubleValue
0.828

@<SCITEGIC>MOL_PROPERTY
VdW6
SciTegic.value.DoubleValue
-8.177

@<SCITEGIC>MOL_PROPERTY
VdW12
SciTegic.value.DoubleValue
9.004

@<SCITEGIC>MOL_PROPERTY
Bond
SciTegic.value.DoubleValue
0.182

@<SCITEGIC>MOL_PROPERTY
Angle
SciTegic.value.DoubleValue
2.988

@<SCITEGIC>MOL_PROPERTY
Pdih
SciTegic.value.DoubleValue
6.930

@<SCITEGIC>MOL_PROPERTY
Idih
SciTegic.value.DoubleValue
0.001

@<SCITEGIC>MOL_PROPERTY
Tether
SciTegic.value.DoubleValue
0.000

@<TRIPOS>MOLECULE
guest-s21_confgen4.mol2 : confsearch ligand conformer 574
          22          21           1
SMALL
USER_CHARGES
 
@<TRIPOS>ATOM
       1    C1      17.634227   20.774214   22.347502 C.2        1 MOL1         0.6145
       2    O1      17.715346   21.225557   21.221801 O.co2      1 MOL1        -0.6735
       3    O2      17.897841   21.413923   23.346670 O.co2      1 MOL1        -0.6735
       4    C2      17.105970   19.351565   22.522057 C.3        1 MOL1        -0.1985
       5    H1      16.077014   19.356514   22.144224 H          1 MOL1         0.0740
       6    H2      17.045811   19.122365   23.592894 H          1 MOL1         0.0740
       7    C3      17.911774   18.248499   21.779760 C.3        1 MOL1        -0.1882
       8    H3      17.261090   17.370666   21.668216 H          1 MOL1         0.0742
       9    H4      18.148797   18.580296   20.759318 H          1 MOL1         0.0742
      10    C4      19.202594   17.789680   22.502382 C.3        1 MOL1        -0.1880
      11    H5      19.597563   16.912231   21.972235 H          1 MOL1         0.0742
      12    H6      18.957216   17.451671   23.518437 H          1 MOL1         0.0742
      13    C5      20.306687   18.869204   22.566534 C.3        1 MOL1        -0.1880
      14    H7      20.479595   19.280411   21.562513 H          1 MOL1         0.0742
      15    H8      19.978598   19.701087   23.202452 H          1 MOL1         0.0742
      16    C6      21.627695   18.301496   23.127419 C.3        1 MOL1        -0.1856
      17    H9      21.973753   17.472237   22.495018 H          1 MOL1         0.0742
      18    H10     21.455960   17.888204   24.130968 H          1 MOL1         0.0742
      19    C7      22.725031   19.382294   23.199169 C.3        1 MOL1        -0.2871
      20    H11     22.938900   19.791173   22.202953 H          1 MOL1         0.0754
      21    H12     23.656401   18.962411   23.600755 H          1 MOL1         0.0754
      22    H13     22.417621   20.210833   23.850724 H          1 MOL1         0.0754
@<TRIPOS>BOND
    1     1     2    1
    2     1     3    2
    3     1     4    1
    4     4     5    1
    5     4     6    1
    6     4     7    1
    7     7     8    1
    8     7     9    1
    9     7    10    1
   10    10    11    1
   11    10    12    1
   12    10    13    1
   13    13    14    1
   14    13    15    1
   15    13    16    1
   16    16    17    1
   17    16    18    1
   18    16    19    1
   19    19    20    1
   20    19    21    1
   21    19    22    1
@<TRIPOS>SUBSTRUCTURE
       1 MOL1            1 RESIDUE      1      MOL     
@<SCITEGIC>MOL_PROPERTY
VConf Rank
SciTegic.value.IntegerValue
574

@<SCITEGIC>MOL_PROPERTY
Conf_Id
SciTegic.value.IntegerValue
8

@<SCITEGIC>MOL_PROPERTY
Delta U+W
SciTegic.value.DoubleValue
1.886

@<SCITEGIC>MOL_PROPERTY
U+W
SciTegic.value.DoubleValue
-51.274

@<SCITEGIC>MOL_PROPERTY
Grad RMS
SciTegic.value.DoubleValue
0.000000

@<SCITEGIC>MOL_PROPERTY
U
SciTegic.value.DoubleValue
11.237

@<SCITEGIC>MOL_PROPERTY
W
SciTegic.value.DoubleValue
-62.510

@<SCITEGIC>MOL_PROPERTY
W(PB)
SciTegic.value.DoubleValue
-64.777

@<SCITEGIC>MOL_PROPERTY
W(SA)
SciTegic.value.DoubleValue
2.267

@<SCITEGIC>MOL_PROPERTY
Valence
SciTegic.value.DoubleValue
9.029

@<SCITEGIC>MOL_PROPERTY
Coulomb
SciTegic.value.DoubleValue
1.667

@<SCITEGIC>MOL_PROPERTY
VdW
SciTegic.value.DoubleValue
0.540

@<SCITEGIC>MOL_PROPERTY
VdW6
SciTegic.value.DoubleValue
-8.825

@<SCITEGIC>MOL_PROPERTY
VdW12
SciTegic.value.DoubleValue
9.365

@<SCITEGIC>MOL_PROPERTY
Bond
SciTegic.value.DoubleValue
0.186

@<SCITEGIC>MOL_PROPERTY
Angle
SciTegic.value.DoubleValue
3.195

@<SCITEGIC>MOL_PROPERTY
Pdih
SciTegic.value.DoubleValue
5.642

@<SCITEGIC>MOL_PROPERTY
Idih
SciTegic.value.DoubleValue
0.007

@<SCITEGIC>MOL_PROPERTY
Tether
SciTegic.value.DoubleValue
0.000

@<TRIPOS>MOLECULE
guest-s21_confgen4.mol2 : confsearch ligand conformer 575
          22          21           1
SMALL
USER_CHARGES
 
@<TRIPOS>ATOM
       1    C1      16.923977   19.337563   21.112985 C.2        1 MOL1         0.6145
       2    O1      16.795728   20.389613   21.707548 O.co2      1 MOL1        -0.6735
       3    O2      16.050343   18.495632   21.040703 O.co2      1 MOL1        -0.6735
       4    C2      18.242095   19.069725   20.391880 C.3        1 MOL1        -0.1985
       5    H1      18.797954   20.010863   20.314503 H          1 MOL1         0.0740
       6    H2      17.996794   18.770776   19.366122 H          1 MOL1         0.0740
       7    C3      19.115268   17.967478   21.052007 C.3        1 MOL1        -0.1882
       8    H3      18.555195   17.022235   21.039372 H          1 MOL1         0.0742
       9    H4      20.011145   17.801767   20.438594 H          1 MOL1         0.0742
      10    C4      19.544196   18.270868   22.508958 C.3        1 MOL1        -0.1880
      11    H5      20.069144   17.389179   22.897607 H          1 MOL1         0.0742
      12    H6      18.653321   18.403214   23.138044 H          1 MOL1         0.0742
      13    C5      20.458778   19.513778   22.636065 C.3        1 MOL1        -0.1880
      14    H7      21.341320   19.393925   21.993222 H          1 MOL1         0.0742
      15    H8      19.921275   20.398019   22.269812 H          1 MOL1         0.0742
      16    C6      20.910013   19.798395   24.087747 C.3        1 MOL1        -0.1856
      17    H9      20.028949   19.903341   24.735892 H          1 MOL1         0.0742
      18    H10     21.428504   20.766805   24.110653 H          1 MOL1         0.0742
      19    C7      21.853514   18.718658   24.661145 C.3        1 MOL1        -0.2871
      20    H11     21.340999   17.755232   24.772884 H          1 MOL1         0.0754
      21    H12     22.218925   19.016340   25.652487 H          1 MOL1         0.0754
      22    H13     22.725067   18.572422   24.009908 H          1 MOL1         0.0754
@<TRIPOS>BOND
    1     1     2    1
    2     1     3    2
    3     1     4    1
    4     4     5    1
    5     4     6    1
    6     4     7    1
    7     7     8    1
    8     7     9    1
    9     7    10    1
   10    10    11    1
   11    10    12    1
   12    10    13    1
   13    13    14    1
   14    13    15    1
   15    13    16    1
   16    16    17    1
   17    16    18    1
   18    16    19    1
   19    19    20    1
   20    19    21    1
   21    19    22    1
@<TRIPOS>SUBSTRUCTURE
       1 MOL1            1 RESIDUE      1      MOL     
@<SCITEGIC>MOL_PROPERTY
VConf Rank
SciTegic.value.IntegerValue
575

@<SCITEGIC>MOL_PROPERTY
Conf_Id
SciTegic.value.IntegerValue
93

@<SCITEGIC>MOL_PROPERTY
Delta U+W
SciTegic.value.DoubleValue
1.836

@<SCITEGIC>MOL_PROPERTY
U+W
SciTegic.value.DoubleValue
-51.323

@<SCITEGIC>MOL_PROPERTY
Grad RMS
SciTegic.value.DoubleValue
0.000000

@<SCITEGIC>MOL_PROPERTY
U
SciTegic.value.DoubleValue
10.427

@<SCITEGIC>MOL_PROPERTY
W
SciTegic.value.DoubleValue
-61.751

@<SCITEGIC>MOL_PROPERTY
W(PB)
SciTegic.value.DoubleValue
-63.980

@<SCITEGIC>MOL_PROPERTY
W(SA)
SciTegic.value.DoubleValue
2.230

@<SCITEGIC>MOL_PROPERTY
Valence
SciTegic.value.DoubleValue
8.446

@<SCITEGIC>MOL_PROPERTY
Coulomb
SciTegic.value.DoubleValue
1.306

@<SCITEGIC>MOL_PROPERTY
VdW
SciTegic.value.DoubleValue
0.676

@<SCITEGIC>MOL_PROPERTY
VdW6
SciTegic.value.DoubleValue
-8.928

@<SCITEGIC>MOL_PROPERTY
VdW12
SciTegic.value.DoubleValue
9.604

@<SCITEGIC>MOL_PROPERTY
Bond
SciTegic.value.DoubleValue
0.209

@<SCITEGIC>MOL_PROPERTY
Angle
SciTegic.value.DoubleValue
3.066

@<SCITEGIC>MOL_PROPERTY
Pdih
SciTegic.value.DoubleValue
5.170

@<SCITEGIC>MOL_PROPERTY
Idih
SciTegic.value.DoubleValue
0.001

@<SCITEGIC>MOL_PROPERTY
Tether
SciTegic.value.DoubleValue
0.000

@<TRIPOS>MOLECULE
guest-s21_confgen4.mol2 : confsearch ligand conformer 576
          22          21           1
SMALL
USER_CHARGES
 
@<TRIPOS>ATOM
       1    C1      18.885605   21.228742   20.347575 C.2        1 MOL1         0.6145
       2    O1      19.638057   21.773499   19.563762 O.co2      1 MOL1        -0.6735
       3    O2      18.261970   21.823629   21.204287 O.co2      1 MOL1        -0.6735
       4    C2      18.692163   19.719624   20.227971 C.3        1 MOL1        -0.1985
       5    H1      18.471869   19.502259   19.176332 H          1 MOL1         0.0740
       6    H2      17.799693   19.433585   20.795764 H          1 MOL1         0.0740
       7    C3      19.921819   18.883513   20.677430 C.3        1 MOL1        -0.1882
       8    H3      19.716364   17.818551   20.504294 H          1 MOL1         0.0742
       9    H4      20.774559   19.140420   20.033878 H          1 MOL1         0.0742
      10    C4      20.335921   19.088885   22.155629 C.3        1 MOL1        -0.1880
      11    H5      20.577961   20.146275   22.329608 H          1 MOL1         0.0742
      12    H6      21.262369   18.526950   22.328602 H          1 MOL1         0.0742
      13    C5      19.257330   18.629965   23.167300 C.3        1 MOL1        -0.1880
      14    H7      18.340274   19.211811   23.007929 H          1 MOL1         0.0742
      15    H8      18.998168   17.578455   22.983843 H          1 MOL1         0.0742
      16    C6      19.683963   18.808541   24.643135 C.3        1 MOL1        -0.1856
      17    H9      18.818354   18.598957   25.286542 H          1 MOL1         0.0742
      18    H10     19.958740   19.856732   24.825267 H          1 MOL1         0.0742
      19    C7      20.847483   17.883968   25.062890 C.3        1 MOL1        -0.2871
      20    H11     21.773501   18.136867   24.531964 H          1 MOL1         0.0754
      21    H12     20.607805   16.832635   24.857089 H          1 MOL1         0.0754
      22    H13     21.045210   17.980945   26.138249 H          1 MOL1         0.0754
@<TRIPOS>BOND
    1     1     2    1
    2     1     3    2
    3     1     4    1
    4     4     5    1
    5     4     6    1
    6     4     7    1
    7     7     8    1
    8     7     9    1
    9     7    10    1
   10    10    11    1
   11    10    12    1
   12    10    13    1
   13    13    14    1
   14    13    15    1
   15    13    16    1
   16    16    17    1
   17    16    18    1
   18    16    19    1
   19    19    20    1
   20    19    21    1
   21    19    22    1
@<TRIPOS>SUBSTRUCTURE
       1 MOL1            1 RESIDUE      1      MOL     
@<SCITEGIC>MOL_PROPERTY
VConf Rank
SciTegic.value.IntegerValue
576

@<SCITEGIC>MOL_PROPERTY
Conf_Id
SciTegic.value.IntegerValue
70

@<SCITEGIC>MOL_PROPERTY
Delta U+W
SciTegic.value.DoubleValue
1.803

@<SCITEGIC>MOL_PROPERTY
U+W
SciTegic.value.DoubleValue
-51.356

@<SCITEGIC>MOL_PROPERTY
Grad RMS
SciTegic.value.DoubleValue
0.000000

@<SCITEGIC>MOL_PROPERTY
U
SciTegic.value.DoubleValue
10.428

@<SCITEGIC>MOL_PROPERTY
W
SciTegic.value.DoubleValue
-61.784

@<SCITEGIC>MOL_PROPERTY
W(PB)
SciTegic.value.DoubleValue
-64.014

@<SCITEGIC>MOL_PROPERTY
W(SA)
SciTegic.value.DoubleValue
2.230

@<SCITEGIC>MOL_PROPERTY
Valence
SciTegic.value.DoubleValue
8.445

@<SCITEGIC>MOL_PROPERTY
Coulomb
SciTegic.value.DoubleValue
1.306

@<SCITEGIC>MOL_PROPERTY
VdW
SciTegic.value.DoubleValue
0.676

@<SCITEGIC>MOL_PROPERTY
VdW6
SciTegic.value.DoubleValue
-8.929

@<SCITEGIC>MOL_PROPERTY
VdW12
SciTegic.value.DoubleValue
9.605

@<SCITEGIC>MOL_PROPERTY
Bond
SciTegic.value.DoubleValue
0.209

@<SCITEGIC>MOL_PROPERTY
Angle
SciTegic.value.DoubleValue
3.066

@<SCITEGIC>MOL_PROPERTY
Pdih
SciTegic.value.DoubleValue
5.170

@<SCITEGIC>MOL_PROPERTY
Idih
SciTegic.value.DoubleValue
0.001

@<SCITEGIC>MOL_PROPERTY
Tether
SciTegic.value.DoubleValue
0.000

@<TRIPOS>MOLECULE
guest-s21_confgen4.mol2 : confsearch ligand conformer 577
          22          21           1
SMALL
USER_CHARGES
 
@<TRIPOS>ATOM
       1    C1      19.616248   18.675263   25.696039 C.2        1 MOL1         0.6145
       2    O1      19.331141   19.786512   26.096980 O.co2      1 MOL1        -0.6735
       3    O2      20.613299   18.071624   26.040116 O.co2      1 MOL1        -0.6735
       4    C2      18.657577   17.993877   24.723539 C.3        1 MOL1        -0.1985
       5    H1      17.641035   18.141497   25.106802 H          1 MOL1         0.0740
       6    H2      18.849624   16.914227   24.741232 H          1 MOL1         0.0740
       7    C3      18.746694   18.530912   23.271425 C.3        1 MOL1        -0.1882
       8    H3      17.940229   18.083109   22.675310 H          1 MOL1         0.0742
       9    H4      18.570362   19.614623   23.281795 H          1 MOL1         0.0742
      10    C4      20.108286   18.216606   22.606712 C.3        1 MOL1        -0.1880
      11    H5      20.303623   17.138455   22.685925 H          1 MOL1         0.0742
      12    H6      20.916626   18.718344   23.156393 H          1 MOL1         0.0742
      13    C5      20.172809   18.619241   21.114315 C.3        1 MOL1        -0.1880
      14    H7      21.119203   18.250967   20.695266 H          1 MOL1         0.0742
      15    H8      19.370242   18.112675   20.561014 H          1 MOL1         0.0742
      16    C6      20.082318   20.144654   20.883892 C.3        1 MOL1        -0.1856
      17    H9      20.851828   20.655482   21.479020 H          1 MOL1         0.0742
      18    H10     19.109714   20.521957   21.226007 H          1 MOL1         0.0742
      19    C7      20.263935   20.503436   19.395260 C.3        1 MOL1        -0.2871
      20    H11     21.244901   20.174296   19.028214 H          1 MOL1         0.0754
      21    H12     20.193992   21.588987   19.247791 H          1 MOL1         0.0754
      22    H13     19.489763   20.027051   18.779560 H          1 MOL1         0.0754
@<TRIPOS>BOND
    1     1     2    1
    2     1     3    2
    3     1     4    1
    4     4     5    1
    5     4     6    1
    6     4     7    1
    7     7     8    1
    8     7     9    1
    9     7    10    1
   10    10    11    1
   11    10    12    1
   12    10    13    1
   13    13    14    1
   14    13    15    1
   15    13    16    1
   16    16    17    1
   17    16    18    1
   18    16    19    1
   19    19    20    1
   20    19    21    1
   21    19    22    1
@<TRIPOS>SUBSTRUCTURE
       1 MOL1            1 RESIDUE      1      MOL     
@<SCITEGIC>MOL_PROPERTY
VConf Rank
SciTegic.value.IntegerValue
577

@<SCITEGIC>MOL_PROPERTY
Conf_Id
SciTegic.value.IntegerValue
85

@<SCITEGIC>MOL_PROPERTY
Delta U+W
SciTegic.value.DoubleValue
0.707

@<SCITEGIC>MOL_PROPERTY
U+W
SciTegic.value.DoubleValue
-52.452

@<SCITEGIC>MOL_PROPERTY
Grad RMS
SciTegic.value.DoubleValue
0.000000

@<SCITEGIC>MOL_PROPERTY
U
SciTegic.value.DoubleValue
8.925

@<SCITEGIC>MOL_PROPERTY
W
SciTegic.value.DoubleValue
-61.378

@<SCITEGIC>MOL_PROPERTY
W(PB)
SciTegic.value.DoubleValue
-63.661

@<SCITEGIC>MOL_PROPERTY
W(SA)
SciTegic.value.DoubleValue
2.283

@<SCITEGIC>MOL_PROPERTY
Valence
SciTegic.value.DoubleValue
7.881

@<SCITEGIC>MOL_PROPERTY
Coulomb
SciTegic.value.DoubleValue
0.349

@<SCITEGIC>MOL_PROPERTY
VdW
SciTegic.value.DoubleValue
0.695

@<SCITEGIC>MOL_PROPERTY
VdW6
SciTegic.value.DoubleValue
-8.049

@<SCITEGIC>MOL_PROPERTY
VdW12
SciTegic.value.DoubleValue
8.743

@<SCITEGIC>MOL_PROPERTY
Bond
SciTegic.value.DoubleValue
0.156

@<SCITEGIC>MOL_PROPERTY
Angle
SciTegic.value.DoubleValue
2.660

@<SCITEGIC>MOL_PROPERTY
Pdih
SciTegic.value.DoubleValue
5.064

@<SCITEGIC>MOL_PROPERTY
Idih
SciTegic.value.DoubleValue
0.001

@<SCITEGIC>MOL_PROPERTY
Tether
SciTegic.value.DoubleValue
0.000

@<TRIPOS>MOLECULE
guest-s21_confgen4.mol2 : confsearch ligand conformer 578
          22          21           1
SMALL
USER_CHARGES
 
@<TRIPOS>ATOM
       1    C1      20.270226   15.971773   23.968650 C.2        1 MOL1         0.6145
       2    O1      20.856411   16.097713   25.025753 O.co2      1 MOL1        -0.6735
       3    O2      19.252413   15.320648   23.838009 O.co2      1 MOL1        -0.6735
       4    C2      20.855164   16.648232   22.731862 C.3        1 MOL1        -0.1985
       5    H1      20.843589   15.911249   21.920250 H          1 MOL1         0.0740
       6    H2      21.907249   16.888324   22.927635 H          1 MOL1         0.0740
       7    C3      20.089734   17.921057   22.284959 C.3        1 MOL1        -0.1882
       8    H3      20.485005   18.237925   21.311685 H          1 MOL1         0.0742
       9    H4      19.028689   17.676347   22.138065 H          1 MOL1         0.0742
      10    C4      20.226885   19.083515   23.295386 C.3        1 MOL1        -0.1880
      11    H5      21.282356   19.378365   23.371183 H          1 MOL1         0.0742
      12    H6      19.935056   18.730061   24.293759 H          1 MOL1         0.0742
      13    C5      19.367624   20.327046   22.955054 C.3        1 MOL1        -0.1880
      14    H7      18.301340   20.062864   22.968233 H          1 MOL1         0.0742
      15    H8      19.504373   21.054424   23.766896 H          1 MOL1         0.0742
      16    C6      19.731978   21.022174   21.619410 C.3        1 MOL1        -0.1856
      17    H9      20.789607   20.850379   21.376265 H          1 MOL1         0.0742
      18    H10     19.620672   22.107833   21.746899 H          1 MOL1         0.0742
      19    C7      18.833195   20.585898   20.440901 C.3        1 MOL1        -0.2871
      20    H11     18.907069   19.509805   20.247330 H          1 MOL1         0.0754
      21    H12     19.122453   21.112363   19.522216 H          1 MOL1         0.0754
      22    H13     17.780631   20.821351   20.645245 H          1 MOL1         0.0754
@<TRIPOS>BOND
    1     1     2    1
    2     1     3    2
    3     1     4    1
    4     4     5    1
    5     4     6    1
    6     4     7    1
    7     7     8    1
    8     7     9    1
    9     7    10    1
   10    10    11    1
   11    10    12    1
   12    10    13    1
   13    13    14    1
   14    13    15    1
   15    13    16    1
   16    16    17    1
   17    16    18    1
   18    16    19    1
   19    19    20    1
   20    19    21    1
   21    19    22    1
@<TRIPOS>SUBSTRUCTURE
       1 MOL1            1 RESIDUE      1      MOL     
@<SCITEGIC>MOL_PROPERTY
VConf Rank
SciTegic.value.IntegerValue
578

@<SCITEGIC>MOL_PROPERTY
Conf_Id
SciTegic.value.IntegerValue
82

@<SCITEGIC>MOL_PROPERTY
Delta U+W
SciTegic.value.DoubleValue
3.438

@<SCITEGIC>MOL_PROPERTY
U+W
SciTegic.value.DoubleValue
-49.721

@<SCITEGIC>MOL_PROPERTY
Grad RMS
SciTegic.value.DoubleValue
0.000000

@<SCITEGIC>MOL_PROPERTY
U
SciTegic.value.DoubleValue
11.773

@<SCITEGIC>MOL_PROPERTY
W
SciTegic.value.DoubleValue
-61.495

@<SCITEGIC>MOL_PROPERTY
W(PB)
SciTegic.value.DoubleValue
-63.749

@<SCITEGIC>MOL_PROPERTY
W(SA)
SciTegic.value.DoubleValue
2.254

@<SCITEGIC>MOL_PROPERTY
Valence
SciTegic.value.DoubleValue
10.419

@<SCITEGIC>MOL_PROPERTY
Coulomb
SciTegic.value.DoubleValue
0.565

@<SCITEGIC>MOL_PROPERTY
VdW
SciTegic.value.DoubleValue
0.789

@<SCITEGIC>MOL_PROPERTY
VdW6
SciTegic.value.DoubleValue
-8.847

@<SCITEGIC>MOL_PROPERTY
VdW12
SciTegic.value.DoubleValue
9.636

@<SCITEGIC>MOL_PROPERTY
Bond
SciTegic.value.DoubleValue
0.200

@<SCITEGIC>MOL_PROPERTY
Angle
SciTegic.value.DoubleValue
3.187

@<SCITEGIC>MOL_PROPERTY
Pdih
SciTegic.value.DoubleValue
7.032

@<SCITEGIC>MOL_PROPERTY
Idih
SciTegic.value.DoubleValue
0.001

@<SCITEGIC>MOL_PROPERTY
Tether
SciTegic.value.DoubleValue
0.000

@<TRIPOS>MOLECULE
guest-s21_confgen4.mol2 : confsearch ligand conformer 579
          22          21           1
SMALL
USER_CHARGES
 
@<TRIPOS>ATOM
       1    C1      18.106331   17.562243   24.835416 C.2        1 MOL1         0.6145
       2    O1      16.931279   17.714892   24.565370 O.co2      1 MOL1        -0.6735
       3    O2      18.572262   16.515566   25.240774 O.co2      1 MOL1        -0.6735
       4    C2      19.041765   18.757934   24.678297 C.3        1 MOL1        -0.1985
       5    H1      19.948686   18.573771   25.266884 H          1 MOL1         0.0740
       6    H2      18.542468   19.624483   25.127504 H          1 MOL1         0.0740
       7    C3      19.414301   19.081156   23.207775 C.3        1 MOL1        -0.1882
       8    H3      18.496037   19.216736   22.619824 H          1 MOL1         0.0742
       9    H4      19.952374   20.037224   23.189919 H          1 MOL1         0.0742
      10    C4      20.295590   17.986480   22.562721 C.3        1 MOL1        -0.1880
      11    H5      19.803995   17.011226   22.681272 H          1 MOL1         0.0742
      12    H6      21.247829   17.917630   23.106044 H          1 MOL1         0.0742
      13    C5      20.577261   18.203140   21.054660 C.3        1 MOL1        -0.1880
      14    H7      21.158349   17.340665   20.700628 H          1 MOL1         0.0742
      15    H8      19.635839   18.180582   20.488849 H          1 MOL1         0.0742
      16    C6      21.373321   19.489591   20.721149 C.3        1 MOL1        -0.1856
      17    H9      22.056131   19.273755   19.887792 H          1 MOL1         0.0742
      18    H10     22.009181   19.775440   21.570375 H          1 MOL1         0.0742
      19    C7      20.471529   20.672859   20.304406 C.3        1 MOL1        -0.2871
      20    H11     19.885585   20.420801   19.410973 H          1 MOL1         0.0754
      21    H12     21.080539   21.554998   20.068280 H          1 MOL1         0.0754
      22    H13     19.771317   20.952710   21.099574 H          1 MOL1         0.0754
@<TRIPOS>BOND
    1     1     2    1
    2     1     3    2
    3     1     4    1
    4     4     5    1
    5     4     6    1
    6     4     7    1
    7     7     8    1
    8     7     9    1
    9     7    10    1
   10    10    11    1
   11    10    12    1
   12    10    13    1
   13    13    14    1
   14    13    15    1
   15    13    16    1
   16    16    17    1
   17    16    18    1
   18    16    19    1
   19    19    20    1
   20    19    21    1
   21    19    22    1
@<TRIPOS>SUBSTRUCTURE
       1 MOL1            1 RESIDUE      1      MOL     
@<SCITEGIC>MOL_PROPERTY
VConf Rank
SciTegic.value.IntegerValue
579

@<SCITEGIC>MOL_PROPERTY
Conf_Id
SciTegic.value.IntegerValue
94

@<SCITEGIC>MOL_PROPERTY
Delta U+W
SciTegic.value.DoubleValue
3.471

@<SCITEGIC>MOL_PROPERTY
U+W
SciTegic.value.DoubleValue
-49.688

@<SCITEGIC>MOL_PROPERTY
Grad RMS
SciTegic.value.DoubleValue
0.000000

@<SCITEGIC>MOL_PROPERTY
U
SciTegic.value.DoubleValue
11.773

@<SCITEGIC>MOL_PROPERTY
W
SciTegic.value.DoubleValue
-61.461

@<SCITEGIC>MOL_PROPERTY
W(PB)
SciTegic.value.DoubleValue
-63.710

@<SCITEGIC>MOL_PROPERTY
W(SA)
SciTegic.value.DoubleValue
2.248

@<SCITEGIC>MOL_PROPERTY
Valence
SciTegic.value.DoubleValue
10.419

@<SCITEGIC>MOL_PROPERTY
Coulomb
SciTegic.value.DoubleValue
0.566

@<SCITEGIC>MOL_PROPERTY
VdW
SciTegic.value.DoubleValue
0.789

@<SCITEGIC>MOL_PROPERTY
VdW6
SciTegic.value.DoubleValue
-8.847

@<SCITEGIC>MOL_PROPERTY
VdW12
SciTegic.value.DoubleValue
9.636

@<SCITEGIC>MOL_PROPERTY
Bond
SciTegic.value.DoubleValue
0.200

@<SCITEGIC>MOL_PROPERTY
Angle
SciTegic.value.DoubleValue
3.187

@<SCITEGIC>MOL_PROPERTY
Pdih
SciTegic.value.DoubleValue
7.032

@<SCITEGIC>MOL_PROPERTY
Idih
SciTegic.value.DoubleValue
0.001

@<SCITEGIC>MOL_PROPERTY
Tether
SciTegic.value.DoubleValue
0.000

@<TRIPOS>MOLECULE
guest-s21_confgen4.mol2 : confsearch ligand conformer 580
          22          21           1
SMALL
USER_CHARGES
 
@<TRIPOS>ATOM
       1    C1      17.782412   21.580637   23.180327 C.2        1 MOL1         0.6145
       2    O1      17.978356   22.644275   23.734384 O.co2      1 MOL1        -0.6735
       3    O2      16.728481   20.978240   23.234378 O.co2      1 MOL1        -0.6735
       4    C2      18.928223   20.958925   22.390059 C.3        1 MOL1        -0.1985
       5    H1      19.528015   21.771208   21.962649 H          1 MOL1         0.0740
       6    H2      18.492475   20.400654   21.553703 H          1 MOL1         0.0740
       7    C3      19.821289   20.032895   23.255711 C.3        1 MOL1        -0.1882
       8    H3      20.175230   20.598889   24.128336 H          1 MOL1         0.0742
       9    H4      19.217011   19.207123   23.654177 H          1 MOL1         0.0742
      10    C4      21.051400   19.474789   22.496921 C.3        1 MOL1        -0.1880
      11    H5      21.655365   18.876105   23.191381 H          1 MOL1         0.0742
      12    H6      21.691824   20.314289   22.194194 H          1 MOL1         0.0742
      13    C5      20.722965   18.625190   21.240944 C.3        1 MOL1        -0.1880
      14    H7      20.263114   19.266855   20.478019 H          1 MOL1         0.0742
      15    H8      21.665546   18.271547   20.801602 H          1 MOL1         0.0742
      16    C6      19.802078   17.405915   21.492467 C.3        1 MOL1        -0.1856
      17    H9      19.619773   16.901022   20.533949 H          1 MOL1         0.0742
      18    H10     18.819700   17.741452   21.850727 H          1 MOL1         0.0742
      19    C7      20.398750   16.385662   22.485880 C.3        1 MOL1        -0.2871
      20    H11     21.389702   16.048746   22.155040 H          1 MOL1         0.0754
      21    H12     19.750480   15.503641   22.566690 H          1 MOL1         0.0754
      22    H13     20.498970   16.818306   23.489240 H          1 MOL1         0.0754
@<TRIPOS>BOND
    1     1     2    1
    2     1     3    2
    3     1     4    1
    4     4     5    1
    5     4     6    1
    6     4     7    1
    7     7     8    1
    8     7     9    1
    9     7    10    1
   10    10    11    1
   11    10    12    1
   12    10    13    1
   13    13    14    1
   14    13    15    1
   15    13    16    1
   16    16    17    1
   17    16    18    1
   18    16    19    1
   19    19    20    1
   20    19    21    1
   21    19    22    1
@<TRIPOS>SUBSTRUCTURE
       1 MOL1            1 RESIDUE      1      MOL     
@<SCITEGIC>MOL_PROPERTY
VConf Rank
SciTegic.value.IntegerValue
580

@<SCITEGIC>MOL_PROPERTY
Conf_Id
SciTegic.value.IntegerValue
56

@<SCITEGIC>MOL_PROPERTY
Delta U+W
SciTegic.value.DoubleValue
0.853

@<SCITEGIC>MOL_PROPERTY
U+W
SciTegic.value.DoubleValue
-52.307

@<SCITEGIC>MOL_PROPERTY
Grad RMS
SciTegic.value.DoubleValue
0.000000

@<SCITEGIC>MOL_PROPERTY
U
SciTegic.value.DoubleValue
8.874

@<SCITEGIC>MOL_PROPERTY
W
SciTegic.value.DoubleValue
-61.181

@<SCITEGIC>MOL_PROPERTY
W(PB)
SciTegic.value.DoubleValue
-63.413

@<SCITEGIC>MOL_PROPERTY
W(SA)
SciTegic.value.DoubleValue
2.232

@<SCITEGIC>MOL_PROPERTY
Valence
SciTegic.value.DoubleValue
8.479

@<SCITEGIC>MOL_PROPERTY
Coulomb
SciTegic.value.DoubleValue
-0.357

@<SCITEGIC>MOL_PROPERTY
VdW
SciTegic.value.DoubleValue
0.753

@<SCITEGIC>MOL_PROPERTY
VdW6
SciTegic.value.DoubleValue
-9.081

@<SCITEGIC>MOL_PROPERTY
VdW12
SciTegic.value.DoubleValue
9.833

@<SCITEGIC>MOL_PROPERTY
Bond
SciTegic.value.DoubleValue
0.221

@<SCITEGIC>MOL_PROPERTY
Angle
SciTegic.value.DoubleValue
3.208

@<SCITEGIC>MOL_PROPERTY
Pdih
SciTegic.value.DoubleValue
5.050

@<SCITEGIC>MOL_PROPERTY
Idih
SciTegic.value.DoubleValue
0.000

@<SCITEGIC>MOL_PROPERTY
Tether
SciTegic.value.DoubleValue
0.000

@<TRIPOS>MOLECULE
guest-s21_confgen4.mol2 : confsearch ligand conformer 581
          22          21           1
SMALL
USER_CHARGES
 
@<TRIPOS>ATOM
       1    C1      17.711427   16.640129   19.581689 C.2        1 MOL1         0.6145
       2    O1      16.820653   16.445094   20.385980 O.co2      1 MOL1        -0.6735
       3    O2      17.705544   16.174859   18.459454 O.co2      1 MOL1        -0.6735
       4    C2      18.909427   17.507548   19.971440 C.3        1 MOL1        -0.1985
       5    H1      18.967053   18.329492   19.248212 H          1 MOL1         0.0740
       6    H2      19.811273   16.898634   19.837780 H          1 MOL1         0.0740
       7    C3      18.871949   18.079656   21.413555 C.3        1 MOL1        -0.1882
       8    H3      17.962960   18.683449   21.542638 H          1 MOL1         0.0742
       9    H4      18.808134   17.251302   22.132754 H          1 MOL1         0.0742
      10    C4      20.115912   18.940945   21.722182 C.3        1 MOL1        -0.1880
      11    H5      20.177576   19.768339   21.001942 H          1 MOL1         0.0742
      12    H6      21.023333   18.335259   21.592329 H          1 MOL1         0.0742
      13    C5      20.076660   19.508940   23.157155 C.3        1 MOL1        -0.1880
      14    H7      19.169348   20.114678   23.287515 H          1 MOL1         0.0742
      15    H8      20.015025   18.681878   23.877778 H          1 MOL1         0.0742
      16    C6      21.319441   20.369795   23.466232 C.3        1 MOL1        -0.1856
      17    H9      21.383300   21.199465   22.748565 H          1 MOL1         0.0742
      18    H10     22.229046   19.766596   23.338778 H          1 MOL1         0.0742
      19    C7      21.276445   20.935040   24.900102 C.3        1 MOL1        -0.2871
      20    H11     20.391894   21.568806   25.046106 H          1 MOL1         0.0754
      21    H12     22.166960   21.544162   25.102701 H          1 MOL1         0.0754
      22    H13     21.244047   20.125211   25.640735 H          1 MOL1         0.0754
@<TRIPOS>BOND
    1     1     2    1
    2     1     3    2
    3     1     4    1
    4     4     5    1
    5     4     6    1
    6     4     7    1
    7     7     8    1
    8     7     9    1
    9     7    10    1
   10    10    11    1
   11    10    12    1
   12    10    13    1
   13    13    14    1
   14    13    15    1
   15    13    16    1
   16    16    17    1
   17    16    18    1
   18    16    19    1
   19    19    20    1
   20    19    21    1
   21    19    22    1
@<TRIPOS>SUBSTRUCTURE
       1 MOL1            1 RESIDUE      1      MOL     
@<SCITEGIC>MOL_PROPERTY
VConf Rank
SciTegic.value.IntegerValue
581

@<SCITEGIC>MOL_PROPERTY
Conf_Id
SciTegic.value.IntegerValue
0

@<SCITEGIC>MOL_PROPERTY
Delta U+W
SciTegic.value.DoubleValue
0.000

@<SCITEGIC>MOL_PROPERTY
U+W
SciTegic.value.DoubleValue
-53.159

@<SCITEGIC>MOL_PROPERTY
Grad RMS
SciTegic.value.DoubleValue
0.000000

@<SCITEGIC>MOL_PROPERTY
U
SciTegic.value.DoubleValue
6.763

@<SCITEGIC>MOL_PROPERTY
W
SciTegic.value.DoubleValue
-59.922

@<SCITEGIC>MOL_PROPERTY
W(PB)
SciTegic.value.DoubleValue
-62.256

@<SCITEGIC>MOL_PROPERTY
W(SA)
SciTegic.value.DoubleValue
2.334

@<SCITEGIC>MOL_PROPERTY
Valence
SciTegic.value.DoubleValue
7.600

@<SCITEGIC>MOL_PROPERTY
Coulomb
SciTegic.value.DoubleValue
-2.139

@<SCITEGIC>MOL_PROPERTY
VdW
SciTegic.value.DoubleValue
1.302

@<SCITEGIC>MOL_PROPERTY
VdW6
SciTegic.value.DoubleValue
-6.786

@<SCITEGIC>MOL_PROPERTY
VdW12
SciTegic.value.DoubleValue
8.088

@<SCITEGIC>MOL_PROPERTY
Bond
SciTegic.value.DoubleValue
0.134

@<SCITEGIC>MOL_PROPERTY
Angle
SciTegic.value.DoubleValue
2.720

@<SCITEGIC>MOL_PROPERTY
Pdih
SciTegic.value.DoubleValue
4.746

@<SCITEGIC>MOL_PROPERTY
Idih
SciTegic.value.DoubleValue
0.000

@<SCITEGIC>MOL_PROPERTY
Tether
SciTegic.value.DoubleValue
0.000

@<TRIPOS>MOLECULE
guest-s21_confgen4.mol2 : confsearch ligand conformer 582
          22          21           1
SMALL
USER_CHARGES
 
@<TRIPOS>ATOM
       1    C1      15.849865   19.096681   21.405509 C.2        1 MOL1         0.6145
       2    O1      15.150358   18.749529   22.336426 O.co2      1 MOL1        -0.6735
       3    O2      15.559927   18.911662   20.240119 O.co2      1 MOL1        -0.6735
       4    C2      17.175273   19.782371   21.717495 C.3        1 MOL1        -0.1985
       5    H1      17.050139   20.362114   22.639939 H          1 MOL1         0.0740
       6    H2      17.387510   20.496028   20.912317 H          1 MOL1         0.0740
       7    C3      18.348586   18.783182   21.869170 C.3        1 MOL1        -0.1882
       8    H3      18.114871   18.067905   22.670000 H          1 MOL1         0.0742
       9    H4      18.452233   18.201816   20.942431 H          1 MOL1         0.0742
      10    C4      19.678339   19.501639   22.184538 C.3        1 MOL1        -0.1880
      11    H5      19.570933   20.082794   23.110765 H          1 MOL1         0.0742
      12    H6      19.908363   20.216777   21.382766 H          1 MOL1         0.0742
      13    C5      20.846074   18.503137   22.335143 C.3        1 MOL1        -0.1880
      14    H7      20.616425   17.787810   23.136826 H          1 MOL1         0.0742
      15    H8      20.953802   17.921768   21.409114 H          1 MOL1         0.0742
      16    C6      22.175434   19.220432   22.650352 C.3        1 MOL1        -0.1856
      17    H9      22.072210   19.801543   23.577245 H          1 MOL1         0.0742
      18    H10     22.409587   19.935517   21.849538 H          1 MOL1         0.0742
      19    C7      23.339014   18.219917   22.799988 C.3        1 MOL1        -0.2871
      20    H11     23.485283   17.646408   21.875272 H          1 MOL1         0.0754
      21    H12     23.145266   17.511311   23.615922 H          1 MOL1         0.0754
      22    H13     24.275784   18.746640   23.023858 H          1 MOL1         0.0754
@<TRIPOS>BOND
    1     1     2    1
    2     1     3    2
    3     1     4    1
    4     4     5    1
    5     4     6    1
    6     4     7    1
    7     7     8    1
    8     7     9    1
    9     7    10    1
   10    10    11    1
   11    10    12    1
   12    10    13    1
   13    13    14    1
   14    13    15    1
   15    13    16    1
   16    16    17    1
   17    16    18    1
   18    16    19    1
   19    19    20    1
   20    19    21    1
   21    19    22    1
@<TRIPOS>SUBSTRUCTURE
       1 MOL1            1 RESIDUE      1      MOL     
@<SCITEGIC>MOL_PROPERTY
VConf Rank
SciTegic.value.IntegerValue
582

@<SCITEGIC>MOL_PROPERTY
Conf_Id
SciTegic.value.IntegerValue
10

@<SCITEGIC>MOL_PROPERTY
Delta U+W
SciTegic.value.DoubleValue
-1.291

@<SCITEGIC>MOL_PROPERTY
U+W
SciTegic.value.DoubleValue
-54.451

@<SCITEGIC>MOL_PROPERTY
Grad RMS
SciTegic.value.DoubleValue
0.000000

@<SCITEGIC>MOL_PROPERTY
U
SciTegic.value.DoubleValue
5.779

@<SCITEGIC>MOL_PROPERTY
W
SciTegic.value.DoubleValue
-60.230

@<SCITEGIC>MOL_PROPERTY
W(PB)
SciTegic.value.DoubleValue
-62.557

@<SCITEGIC>MOL_PROPERTY
W(SA)
SciTegic.value.DoubleValue
2.328

@<SCITEGIC>MOL_PROPERTY
Valence
SciTegic.value.DoubleValue
7.101

@<SCITEGIC>MOL_PROPERTY
Coulomb
SciTegic.value.DoubleValue
-2.079

@<SCITEGIC>MOL_PROPERTY
VdW
SciTegic.value.DoubleValue
0.757

@<SCITEGIC>MOL_PROPERTY
VdW6
SciTegic.value.DoubleValue
-6.496

@<SCITEGIC>MOL_PROPERTY
VdW12
SciTegic.value.DoubleValue
7.253

@<SCITEGIC>MOL_PROPERTY
Bond
SciTegic.value.DoubleValue
0.100

@<SCITEGIC>MOL_PROPERTY
Angle
SciTegic.value.DoubleValue
2.262

@<SCITEGIC>MOL_PROPERTY
Pdih
SciTegic.value.DoubleValue
4.738

@<SCITEGIC>MOL_PROPERTY
Idih
SciTegic.value.DoubleValue
0.001

@<SCITEGIC>MOL_PROPERTY
Tether
SciTegic.value.DoubleValue
0.000

@<TRIPOS>MOLECULE
guest-s21_confgen4.mol2 : confsearch ligand conformer 583
          22          21           1
SMALL
USER_CHARGES
 
@<TRIPOS>ATOM
       1    C1      22.550097   17.131333   20.033948 C.2        1 MOL1         0.6145
       2    O1      22.921418   17.804757   19.093165 O.co2      1 MOL1        -0.6735
       3    O2      23.231812   16.272478   20.557484 O.co2      1 MOL1        -0.6735
       4    C2      21.159875   17.392889   20.602350 C.3        1 MOL1        -0.1985
       5    H1      20.763792   16.444227   20.984194 H          1 MOL1         0.0740
       6    H2      20.508536   17.707894   19.778222 H          1 MOL1         0.0740
       7    C3      21.159114   18.461918   21.722764 C.3        1 MOL1        -0.1882
       8    H3      21.826034   18.137655   22.533679 H          1 MOL1         0.0742
       9    H4      21.569931   19.401631   21.328150 H          1 MOL1         0.0742
      10    C4      19.740762   18.708388   22.281223 C.3        1 MOL1        -0.1880
      11    H5      19.333509   17.767912   22.676831 H          1 MOL1         0.0742
      12    H6      19.081639   19.024684   21.462272 H          1 MOL1         0.0742
      13    C5      19.744855   19.778889   23.396691 C.3        1 MOL1        -0.1880
      14    H7      20.461672   19.481908   24.174451 H          1 MOL1         0.0742
      15    H8      20.103942   20.734730   22.991279 H          1 MOL1         0.0742
      16    C6      18.361595   19.984286   24.056775 C.3        1 MOL1        -0.1856
      17    H9      18.476015   20.667719   24.909455 H          1 MOL1         0.0742
      18    H10     18.001946   19.031418   24.469091 H          1 MOL1         0.0742
      19    C7      17.304428   20.565200   23.092852 C.3        1 MOL1        -0.2871
      20    H11     16.370051   20.774969   23.629373 H          1 MOL1         0.0754
      21    H12     17.071441   19.862666   22.282995 H          1 MOL1         0.0754
      22    H13     17.654957   21.504094   22.644810 H          1 MOL1         0.0754
@<TRIPOS>BOND
    1     1     2    1
    2     1     3    2
    3     1     4    1
    4     4     5    1
    5     4     6    1
    6     4     7    1
    7     7     8    1
    8     7     9    1
    9     7    10    1
   10    10    11    1
   11    10    12    1
   12    10    13    1
   13    13    14    1
   14    13    15    1
   15    13    16    1
   16    16    17    1
   17    16    18    1
   18    16    19    1
   19    19    20    1
   20    19    21    1
   21    19    22    1
@<TRIPOS>SUBSTRUCTURE
       1 MOL1            1 RESIDUE      1      MOL     
@<SCITEGIC>MOL_PROPERTY
VConf Rank
SciTegic.value.IntegerValue
583

@<SCITEGIC>MOL_PROPERTY
Conf_Id
SciTegic.value.IntegerValue
37

@<SCITEGIC>MOL_PROPERTY
Delta U+W
SciTegic.value.DoubleValue
-0.345

@<SCITEGIC>MOL_PROPERTY
U+W
SciTegic.value.DoubleValue
-53.504

@<SCITEGIC>MOL_PROPERTY
Grad RMS
SciTegic.value.DoubleValue
0.000000

@<SCITEGIC>MOL_PROPERTY
U
SciTegic.value.DoubleValue
6.751

@<SCITEGIC>MOL_PROPERTY
W
SciTegic.value.DoubleValue
-60.255

@<SCITEGIC>MOL_PROPERTY
W(PB)
SciTegic.value.DoubleValue
-62.592

@<SCITEGIC>MOL_PROPERTY
W(SA)
SciTegic.value.DoubleValue
2.336

@<SCITEGIC>MOL_PROPERTY
Valence
SciTegic.value.DoubleValue
7.602

@<SCITEGIC>MOL_PROPERTY
Coulomb
SciTegic.value.DoubleValue
-1.744

@<SCITEGIC>MOL_PROPERTY
VdW
SciTegic.value.DoubleValue
0.894

@<SCITEGIC>MOL_PROPERTY
VdW6
SciTegic.value.DoubleValue
-7.110

@<SCITEGIC>MOL_PROPERTY
VdW12
SciTegic.value.DoubleValue
8.004

@<SCITEGIC>MOL_PROPERTY
Bond
SciTegic.value.DoubleValue
0.131

@<SCITEGIC>MOL_PROPERTY
Angle
SciTegic.value.DoubleValue
2.489

@<SCITEGIC>MOL_PROPERTY
Pdih
SciTegic.value.DoubleValue
4.982

@<SCITEGIC>MOL_PROPERTY
Idih
SciTegic.value.DoubleValue
0.001

@<SCITEGIC>MOL_PROPERTY
Tether
SciTegic.value.DoubleValue
0.000

@<TRIPOS>MOLECULE
guest-s21_confgen4.mol2 : confsearch ligand conformer 584
          22          21           1
SMALL
USER_CHARGES
 
@<TRIPOS>ATOM
       1    C1      22.722706   16.525935   21.540725 C.2        1 MOL1         0.6145
       2    O1      22.422013   15.645204   20.759478 O.co2      1 MOL1        -0.6735
       3    O2      23.577768   16.404343   22.395442 O.co2      1 MOL1        -0.6735
       4    C2      21.970480   17.849389   21.458040 C.3        1 MOL1        -0.1985
       5    H1      21.703993   18.024866   20.408827 H          1 MOL1         0.0740
       6    H2      22.656968   18.650799   21.756573 H          1 MOL1         0.0740
       7    C3      20.700434   17.876139   22.343717 C.3        1 MOL1        -0.1882
       8    H3      20.029255   17.060560   22.040573 H          1 MOL1         0.0742
       9    H4      20.982893   17.685421   23.388396 H          1 MOL1         0.0742
      10    C4      19.957344   19.225931   22.242578 C.3        1 MOL1        -0.1880
      11    H5      19.686452   19.409817   21.194737 H          1 MOL1         0.0742
      12    H6      20.629908   20.038983   22.548292 H          1 MOL1         0.0742
      13    C5      18.688319   19.246139   23.125431 C.3        1 MOL1        -0.1880
      14    H7      17.990981   18.466593   22.789332 H          1 MOL1         0.0742
      15    H8      18.966547   18.990888   24.157115 H          1 MOL1         0.0742
      16    C6      17.968160   20.614560   23.135616 C.3        1 MOL1        -0.1856
      17    H9      18.660843   21.395975   23.477511 H          1 MOL1         0.0742
      18    H10     17.153407   20.578519   23.871900 H          1 MOL1         0.0742
      19    C7      17.380077   21.006162   21.762657 C.3        1 MOL1        -0.2871
      20    H11     16.706784   20.225015   21.386332 H          1 MOL1         0.0754
      21    H12     18.170696   21.167302   21.019246 H          1 MOL1         0.0754
      22    H13     16.805198   21.937809   21.843083 H          1 MOL1         0.0754
@<TRIPOS>BOND
    1     1     2    1
    2     1     3    2
    3     1     4    1
    4     4     5    1
    5     4     6    1
    6     4     7    1
    7     7     8    1
    8     7     9    1
    9     7    10    1
   10    10    11    1
   11    10    12    1
   12    10    13    1
   13    13    14    1
   14    13    15    1
   15    13    16    1
   16    16    17    1
   17    16    18    1
   18    16    19    1
   19    19    20    1
   20    19    21    1
   21    19    22    1
@<TRIPOS>SUBSTRUCTURE
       1 MOL1            1 RESIDUE      1      MOL     
@<SCITEGIC>MOL_PROPERTY
VConf Rank
SciTegic.value.IntegerValue
584

@<SCITEGIC>MOL_PROPERTY
Conf_Id
SciTegic.value.IntegerValue
38

@<SCITEGIC>MOL_PROPERTY
Delta U+W
SciTegic.value.DoubleValue
-0.439

@<SCITEGIC>MOL_PROPERTY
U+W
SciTegic.value.DoubleValue
-53.598

@<SCITEGIC>MOL_PROPERTY
Grad RMS
SciTegic.value.DoubleValue
0.000000

@<SCITEGIC>MOL_PROPERTY
U
SciTegic.value.DoubleValue
6.751

@<SCITEGIC>MOL_PROPERTY
W
SciTegic.value.DoubleValue
-60.350

@<SCITEGIC>MOL_PROPERTY
W(PB)
SciTegic.value.DoubleValue
-62.659

@<SCITEGIC>MOL_PROPERTY
W(SA)
SciTegic.value.DoubleValue
2.309

@<SCITEGIC>MOL_PROPERTY
Valence
SciTegic.value.DoubleValue
7.602

@<SCITEGIC>MOL_PROPERTY
Coulomb
SciTegic.value.DoubleValue
-1.744

@<SCITEGIC>MOL_PROPERTY
VdW
SciTegic.value.DoubleValue
0.893

@<SCITEGIC>MOL_PROPERTY
VdW6
SciTegic.value.DoubleValue
-7.110

@<SCITEGIC>MOL_PROPERTY
VdW12
SciTegic.value.DoubleValue
8.004

@<SCITEGIC>MOL_PROPERTY
Bond
SciTegic.value.DoubleValue
0.131

@<SCITEGIC>MOL_PROPERTY
Angle
SciTegic.value.DoubleValue
2.489

@<SCITEGIC>MOL_PROPERTY
Pdih
SciTegic.value.DoubleValue
4.981

@<SCITEGIC>MOL_PROPERTY
Idih
SciTegic.value.DoubleValue
0.001

@<SCITEGIC>MOL_PROPERTY
Tether
SciTegic.value.DoubleValue
0.000

@<TRIPOS>MOLECULE
guest-s21_confgen4.mol2 : confsearch ligand conformer 585
          22          21           1
SMALL
USER_CHARGES
 
@<TRIPOS>ATOM
       1    C1      18.272038   22.349686   22.957770 C.2        1 MOL1         0.6145
       2    O1      18.093713   22.779004   24.080467 O.co2      1 MOL1        -0.6735
       3    O2      17.660264   22.740176   21.983202 O.co2      1 MOL1        -0.6735
       4    C2      19.304206   21.244329   22.765146 C.3        1 MOL1        -0.1985
       5    H1      20.100463   21.390078   23.504841 H          1 MOL1         0.0740
       6    H2      19.752129   21.376860   21.774056 H          1 MOL1         0.0740
       7    C3      18.695773   19.824685   22.906680 C.3        1 MOL1        -0.1882
       8    H3      18.172231   19.761838   23.870735 H          1 MOL1         0.0742
       9    H4      17.933719   19.672166   22.129952 H          1 MOL1         0.0742
      10    C4      19.745496   18.689639   22.839794 C.3        1 MOL1        -0.1880
      11    H5      19.242468   17.747054   23.090443 H          1 MOL1         0.0742
      12    H6      20.510245   18.849731   23.611932 H          1 MOL1         0.0742
      13    C5      20.422162   18.558310   21.453108 C.3        1 MOL1        -0.1880
      14    H7      19.657143   18.400012   20.680845 H          1 MOL1         0.0742
      15    H8      20.928163   19.499185   21.202514 H          1 MOL1         0.0742
      16    C6      21.468050   17.420918   21.385478 C.3        1 MOL1        -0.1856
      17    H9      22.228956   17.569380   22.164114 H          1 MOL1         0.0742
      18    H10     21.993640   17.483896   20.422652 H          1 MOL1         0.0742
      19    C7      20.852371   16.011265   21.521388 C.3        1 MOL1        -0.2871
      20    H11     20.419511   15.856125   22.517374 H          1 MOL1         0.0754
      21    H12     21.620195   15.241485   21.370385 H          1 MOL1         0.0754
      22    H13     20.064023   15.853015   20.774000 H          1 MOL1         0.0754
@<TRIPOS>BOND
    1     1     2    1
    2     1     3    2
    3     1     4    1
    4     4     5    1
    5     4     6    1
    6     4     7    1
    7     7     8    1
    8     7     9    1
    9     7    10    1
   10    10    11    1
   11    10    12    1
   12    10    13    1
   13    13    14    1
   14    13    15    1
   15    13    16    1
   16    16    17    1
   17    16    18    1
   18    16    19    1
   19    19    20    1
   20    19    21    1
   21    19    22    1
@<TRIPOS>SUBSTRUCTURE
       1 MOL1            1 RESIDUE      1      MOL     
@<SCITEGIC>MOL_PROPERTY
VConf Rank
SciTegic.value.IntegerValue
585

@<SCITEGIC>MOL_PROPERTY
Conf_Id
SciTegic.value.IntegerValue
60

@<SCITEGIC>MOL_PROPERTY
Delta U+W
SciTegic.value.DoubleValue
0.386

@<SCITEGIC>MOL_PROPERTY
U+W
SciTegic.value.DoubleValue
-52.773

@<SCITEGIC>MOL_PROPERTY
Grad RMS
SciTegic.value.DoubleValue
0.000000

@<SCITEGIC>MOL_PROPERTY
U
SciTegic.value.DoubleValue
7.689

@<SCITEGIC>MOL_PROPERTY
W
SciTegic.value.DoubleValue
-60.463

@<SCITEGIC>MOL_PROPERTY
W(PB)
SciTegic.value.DoubleValue
-62.772

@<SCITEGIC>MOL_PROPERTY
W(SA)
SciTegic.value.DoubleValue
2.309

@<SCITEGIC>MOL_PROPERTY
Valence
SciTegic.value.DoubleValue
8.197

@<SCITEGIC>MOL_PROPERTY
Coulomb
SciTegic.value.DoubleValue
-1.561

@<SCITEGIC>MOL_PROPERTY
VdW
SciTegic.value.DoubleValue
1.053

@<SCITEGIC>MOL_PROPERTY
VdW6
SciTegic.value.DoubleValue
-7.737

@<SCITEGIC>MOL_PROPERTY
VdW12
SciTegic.value.DoubleValue
8.790

@<SCITEGIC>MOL_PROPERTY
Bond
SciTegic.value.DoubleValue
0.181

@<SCITEGIC>MOL_PROPERTY
Angle
SciTegic.value.DoubleValue
2.780

@<SCITEGIC>MOL_PROPERTY
Pdih
SciTegic.value.DoubleValue
5.235

@<SCITEGIC>MOL_PROPERTY
Idih
SciTegic.value.DoubleValue
0.001

@<SCITEGIC>MOL_PROPERTY
Tether
SciTegic.value.DoubleValue
0.000

@<TRIPOS>MOLECULE
guest-s21_confgen4.mol2 : confsearch ligand conformer 586
          22          21           1
SMALL
USER_CHARGES
 
@<TRIPOS>ATOM
       1    C1      16.552716   17.944154   20.695834 C.2        1 MOL1         0.6145
       2    O1      16.443023   18.437510   19.590799 O.co2      1 MOL1        -0.6735
       3    O2      15.614073   17.514690   21.336981 O.co2      1 MOL1        -0.6735
       4    C2      17.941342   17.881004   21.321947 C.3        1 MOL1        -0.1985
       5    H1      18.664788   17.735242   20.512106 H          1 MOL1         0.0740
       6    H2      17.985408   16.991956   21.962311 H          1 MOL1         0.0740
       7    C3      18.286581   19.150126   22.143989 C.3        1 MOL1        -0.1882
       8    H3      18.287492   20.027572   21.482640 H          1 MOL1         0.0742
       9    H4      17.489051   19.318584   22.880884 H          1 MOL1         0.0742
      10    C4      19.638255   19.057105   22.891682 C.3        1 MOL1        -0.1880
      11    H5      19.637053   18.174471   23.545612 H          1 MOL1         0.0742
      12    H6      19.723200   19.931647   23.549167 H          1 MOL1         0.0742
      13    C5      20.862687   19.004721   21.945088 C.3        1 MOL1        -0.1880
      14    H7      20.780630   18.128878   21.289157 H          1 MOL1         0.0742
      15    H8      20.862716   19.886459   21.289924 H          1 MOL1         0.0742
      16    C6      22.213629   18.916331   22.692922 C.3        1 MOL1        -0.1856
      17    H9      23.011753   18.745679   21.957313 H          1 MOL1         0.0742
      18    H10     22.213270   18.041840   23.358173 H          1 MOL1         0.0742
      19    C7      22.551507   20.186686   23.503286 C.3        1 MOL1        -0.2871
      20    H11     22.523753   21.079161   22.864660 H          1 MOL1         0.0754
      21    H12     23.558571   20.110427   23.933314 H          1 MOL1         0.0754
      22    H13     21.847956   20.333638   24.332048 H          1 MOL1         0.0754
@<TRIPOS>BOND
    1     1     2    1
    2     1     3    2
    3     1     4    1
    4     4     5    1
    5     4     6    1
    6     4     7    1
    7     7     8    1
    8     7     9    1
    9     7    10    1
   10    10    11    1
   11    10    12    1
   12    10    13    1
   13    13    14    1
   14    13    15    1
   15    13    16    1
   16    16    17    1
   17    16    18    1
   18    16    19    1
   19    19    20    1
   20    19    21    1
   21    19    22    1
@<TRIPOS>SUBSTRUCTURE
       1 MOL1            1 RESIDUE      1      MOL     
@<SCITEGIC>MOL_PROPERTY
VConf Rank
SciTegic.value.IntegerValue
586

@<SCITEGIC>MOL_PROPERTY
Conf_Id
SciTegic.value.IntegerValue
28

@<SCITEGIC>MOL_PROPERTY
Delta U+W
SciTegic.value.DoubleValue
0.351

@<SCITEGIC>MOL_PROPERTY
U+W
SciTegic.value.DoubleValue
-52.808

@<SCITEGIC>MOL_PROPERTY
Grad RMS
SciTegic.value.DoubleValue
0.000000

@<SCITEGIC>MOL_PROPERTY
U
SciTegic.value.DoubleValue
7.689

@<SCITEGIC>MOL_PROPERTY
W
SciTegic.value.DoubleValue
-60.498

@<SCITEGIC>MOL_PROPERTY
W(PB)
SciTegic.value.DoubleValue
-62.768

@<SCITEGIC>MOL_PROPERTY
W(SA)
SciTegic.value.DoubleValue
2.270

@<SCITEGIC>MOL_PROPERTY
Valence
SciTegic.value.DoubleValue
8.197

@<SCITEGIC>MOL_PROPERTY
Coulomb
SciTegic.value.DoubleValue
-1.561

@<SCITEGIC>MOL_PROPERTY
VdW
SciTegic.value.DoubleValue
1.053

@<SCITEGIC>MOL_PROPERTY
VdW6
SciTegic.value.DoubleValue
-7.737

@<SCITEGIC>MOL_PROPERTY
VdW12
SciTegic.value.DoubleValue
8.791

@<SCITEGIC>MOL_PROPERTY
Bond
SciTegic.value.DoubleValue
0.181

@<SCITEGIC>MOL_PROPERTY
Angle
SciTegic.value.DoubleValue
2.780

@<SCITEGIC>MOL_PROPERTY
Pdih
SciTegic.value.DoubleValue
5.235

@<SCITEGIC>MOL_PROPERTY
Idih
SciTegic.value.DoubleValue
0.001

@<SCITEGIC>MOL_PROPERTY
Tether
SciTegic.value.DoubleValue
0.000

@<TRIPOS>MOLECULE
guest-s21_confgen4.mol2 : confsearch ligand conformer 587
          22          21           1
SMALL
USER_CHARGES
 
@<TRIPOS>ATOM
       1    C1      17.592169   16.519565   20.547528 C.2        1 MOL1         0.6145
       2    O1      16.507507   16.955228   20.215596 O.co2      1 MOL1        -0.6735
       3    O2      18.266459   15.788959   19.848955 O.co2      1 MOL1        -0.6735
       4    C2      18.146646   16.928315   21.907601 C.3        1 MOL1        -0.1985
       5    H1      18.752450   16.098887   22.291919 H          1 MOL1         0.0740
       6    H2      17.301806   17.058458   22.594569 H          1 MOL1         0.0740
       7    C3      18.992422   18.224215   21.847661 C.3        1 MOL1        -0.1882
       8    H3      19.818434   18.075992   21.139705 H          1 MOL1         0.0742
       9    H4      18.374598   19.042536   21.452758 H          1 MOL1         0.0742
      10    C4      19.545656   18.612514   23.238422 C.3        1 MOL1        -0.1880
      11    H5      20.205798   17.816932   23.610243 H          1 MOL1         0.0742
      12    H6      18.710182   18.680406   23.948588 H          1 MOL1         0.0742
      13    C5      20.304811   19.960548   23.245288 C.3        1 MOL1        -0.1880
      14    H7      19.643732   20.757126   22.877361 H          1 MOL1         0.0742
      15    H8      20.550195   20.216384   24.285126 H          1 MOL1         0.0742
      16    C6      21.607264   19.938915   22.413760 C.3        1 MOL1        -0.1856
      17    H9      21.377454   19.761983   21.354873 H          1 MOL1         0.0742
      18    H10     22.245837   19.109087   22.746650 H          1 MOL1         0.0742
      19    C7      22.382695   21.265430   22.543293 C.3        1 MOL1        -0.2871
      20    H11     22.663700   21.456464   23.587274 H          1 MOL1         0.0754
      21    H12     21.776464   22.110313   22.191097 H          1 MOL1         0.0754
      22    H13     23.302617   21.235633   21.945025 H          1 MOL1         0.0754
@<TRIPOS>BOND
    1     1     2    1
    2     1     3    2
    3     1     4    1
    4     4     5    1
    5     4     6    1
    6     4     7    1
    7     7     8    1
    8     7     9    1
    9     7    10    1
   10    10    11    1
   11    10    12    1
   12    10    13    1
   13    13    14    1
   14    13    15    1
   15    13    16    1
   16    16    17    1
   17    16    18    1
   18    16    19    1
   19    19    20    1
   20    19    21    1
   21    19    22    1
@<TRIPOS>SUBSTRUCTURE
       1 MOL1            1 RESIDUE      1      MOL     
@<SCITEGIC>MOL_PROPERTY
VConf Rank
SciTegic.value.IntegerValue
587

@<SCITEGIC>MOL_PROPERTY
Conf_Id
SciTegic.value.IntegerValue
50

@<SCITEGIC>MOL_PROPERTY
Delta U+W
SciTegic.value.DoubleValue
-0.486

@<SCITEGIC>MOL_PROPERTY
U+W
SciTegic.value.DoubleValue
-53.646

@<SCITEGIC>MOL_PROPERTY
Grad RMS
SciTegic.value.DoubleValue
0.000000

@<SCITEGIC>MOL_PROPERTY
U
SciTegic.value.DoubleValue
7.026

@<SCITEGIC>MOL_PROPERTY
W
SciTegic.value.DoubleValue
-60.672

@<SCITEGIC>MOL_PROPERTY
W(PB)
SciTegic.value.DoubleValue
-62.964

@<SCITEGIC>MOL_PROPERTY
W(SA)
SciTegic.value.DoubleValue
2.292

@<SCITEGIC>MOL_PROPERTY
Valence
SciTegic.value.DoubleValue
7.637

@<SCITEGIC>MOL_PROPERTY
Coulomb
SciTegic.value.DoubleValue
-1.488

@<SCITEGIC>MOL_PROPERTY
VdW
SciTegic.value.DoubleValue
0.877

@<SCITEGIC>MOL_PROPERTY
VdW6
SciTegic.value.DoubleValue
-7.165

@<SCITEGIC>MOL_PROPERTY
VdW12
SciTegic.value.DoubleValue
8.043

@<SCITEGIC>MOL_PROPERTY
Bond
SciTegic.value.DoubleValue
0.134

@<SCITEGIC>MOL_PROPERTY
Angle
SciTegic.value.DoubleValue
2.513

@<SCITEGIC>MOL_PROPERTY
Pdih
SciTegic.value.DoubleValue
4.990

@<SCITEGIC>MOL_PROPERTY
Idih
SciTegic.value.DoubleValue
0.001

@<SCITEGIC>MOL_PROPERTY
Tether
SciTegic.value.DoubleValue
0.000

@<TRIPOS>MOLECULE
guest-s21_confgen4.mol2 : confsearch ligand conformer 588
          22          21           1
SMALL
USER_CHARGES
 
@<TRIPOS>ATOM
       1    C1      22.316768   17.789967   19.847841 C.2        1 MOL1         0.6145
       2    O1      21.916425   17.152627   18.893905 O.co2      1 MOL1        -0.6735
       3    O2      23.306145   17.493557   20.487942 O.co2      1 MOL1        -0.6735
       4    C2      21.522117   19.017917   20.277953 C.3        1 MOL1        -0.1985
       5    H1      21.080320   19.468808   19.381221 H          1 MOL1         0.0740
       6    H2      22.224403   19.748993   20.696249 H          1 MOL1         0.0740
       7    C3      20.416786   18.687669   21.311141 C.3        1 MOL1        -0.1882
       8    H3      19.727402   17.948169   20.880801 H          1 MOL1         0.0742
       9    H4      20.880824   18.220019   22.189458 H          1 MOL1         0.0742
      10    C4      19.630418   19.950577   21.732755 C.3        1 MOL1        -0.1880
      11    H5      19.239596   20.444641   20.832688 H          1 MOL1         0.0742
      12    H6      20.310721   20.668599   22.210897 H          1 MOL1         0.0742
      13    C5      18.444889   19.650619   22.680441 C.3        1 MOL1        -0.1880
      14    H7      17.872379   20.576971   22.825456 H          1 MOL1         0.0742
      15    H8      17.762267   18.935660   22.201073 H          1 MOL1         0.0742
      16    C6      18.880666   19.109494   24.060865 C.3        1 MOL1        -0.1856
      17    H9      19.604193   19.798754   24.517632 H          1 MOL1         0.0742
      18    H10     19.387580   18.142487   23.945561 H          1 MOL1         0.0742
      19    C7      17.674613   18.933494   25.005416 C.3        1 MOL1        -0.2871
      20    H11     16.946891   18.226974   24.585135 H          1 MOL1         0.0754
      21    H12     17.164741   19.890914   25.174929 H          1 MOL1         0.0754
      22    H13     17.999723   18.545845   25.979634 H          1 MOL1         0.0754
@<TRIPOS>BOND
    1     1     2    1
    2     1     3    2
    3     1     4    1
    4     4     5    1
    5     4     6    1
    6     4     7    1
    7     7     8    1
    8     7     9    1
    9     7    10    1
   10    10    11    1
   11    10    12    1
   12    10    13    1
   13    13    14    1
   14    13    15    1
   15    13    16    1
   16    16    17    1
   17    16    18    1
   18    16    19    1
   19    19    20    1
   20    19    21    1
   21    19    22    1
@<TRIPOS>SUBSTRUCTURE
       1 MOL1            1 RESIDUE      1      MOL     
@<SCITEGIC>MOL_PROPERTY
VConf Rank
SciTegic.value.IntegerValue
588

@<SCITEGIC>MOL_PROPERTY
Conf_Id
SciTegic.value.IntegerValue
51

@<SCITEGIC>MOL_PROPERTY
Delta U+W
SciTegic.value.DoubleValue
-0.517

@<SCITEGIC>MOL_PROPERTY
U+W
SciTegic.value.DoubleValue
-53.677

@<SCITEGIC>MOL_PROPERTY
Grad RMS
SciTegic.value.DoubleValue
0.000000

@<SCITEGIC>MOL_PROPERTY
U
SciTegic.value.DoubleValue
7.026

@<SCITEGIC>MOL_PROPERTY
W
SciTegic.value.DoubleValue
-60.703

@<SCITEGIC>MOL_PROPERTY
W(PB)
SciTegic.value.DoubleValue
-63.007

@<SCITEGIC>MOL_PROPERTY
W(SA)
SciTegic.value.DoubleValue
2.304

@<SCITEGIC>MOL_PROPERTY
Valence
SciTegic.value.DoubleValue
7.638

@<SCITEGIC>MOL_PROPERTY
Coulomb
SciTegic.value.DoubleValue
-1.488

@<SCITEGIC>MOL_PROPERTY
VdW
SciTegic.value.DoubleValue
0.877

@<SCITEGIC>MOL_PROPERTY
VdW6
SciTegic.value.DoubleValue
-7.165

@<SCITEGIC>MOL_PROPERTY
VdW12
SciTegic.value.DoubleValue
8.042

@<SCITEGIC>MOL_PROPERTY
Bond
SciTegic.value.DoubleValue
0.134

@<SCITEGIC>MOL_PROPERTY
Angle
SciTegic.value.DoubleValue
2.513

@<SCITEGIC>MOL_PROPERTY
Pdih
SciTegic.value.DoubleValue
4.990

@<SCITEGIC>MOL_PROPERTY
Idih
SciTegic.value.DoubleValue
0.001

@<SCITEGIC>MOL_PROPERTY
Tether
SciTegic.value.DoubleValue
0.000

@<TRIPOS>MOLECULE
guest-s21_confgen4.mol2 : confsearch ligand conformer 589
          22          21           1
SMALL
USER_CHARGES
 
@<TRIPOS>ATOM
       1    C1      19.322736   21.207742   24.833908 C.2        1 MOL1         0.6145
       2    O1      18.593707   20.785041   25.709546 O.co2      1 MOL1        -0.6735
       3    O2      20.461830   21.582857   25.030235 O.co2      1 MOL1        -0.6735
       4    C2      18.768906   21.288733   23.414103 C.3        1 MOL1        -0.1985
       5    H1      19.388558   21.984661   22.835639 H          1 MOL1         0.0740
       6    H2      17.768190   21.732151   23.477278 H          1 MOL1         0.0740
       7    C3      18.683966   19.919407   22.691106 C.3        1 MOL1        -0.1882
       8    H3      18.084040   19.225143   23.295871 H          1 MOL1         0.0742
       9    H4      18.151311   20.051224   21.739557 H          1 MOL1         0.0742
      10    C4      20.074992   19.305699   22.415432 C.3        1 MOL1        -0.1880
      11    H5      20.607651   19.154792   23.364594 H          1 MOL1         0.0742
      12    H6      20.675219   20.008903   21.821928 H          1 MOL1         0.0742
      13    C5      19.967857   17.959251   21.667733 C.3        1 MOL1        -0.1880
      14    H7      19.367534   17.256600   22.261872 H          1 MOL1         0.0742
      15    H8      19.438060   18.108064   20.716824 H          1 MOL1         0.0742
      16    C6      21.356595   17.345376   21.392763 C.3        1 MOL1        -0.1856
      17    H9      21.888889   17.193396   22.342009 H          1 MOL1         0.0742
      18    H10     21.959472   18.044826   20.797136 H          1 MOL1         0.0742
      19    C7      21.245600   16.000661   20.646589 C.3        1 MOL1        -0.2871
      20    H11     20.673433   15.271200   21.234733 H          1 MOL1         0.0754
      21    H12     22.241601   15.578678   20.459509 H          1 MOL1         0.0754
      22    H13     20.744485   16.129023   19.678186 H          1 MOL1         0.0754
@<TRIPOS>BOND
    1     1     2    1
    2     1     3    2
    3     1     4    1
    4     4     5    1
    5     4     6    1
    6     4     7    1
    7     7     8    1
    8     7     9    1
    9     7    10    1
   10    10    11    1
   11    10    12    1
   12    10    13    1
   13    13    14    1
   14    13    15    1
   15    13    16    1
   16    16    17    1
   17    16    18    1
   18    16    19    1
   19    19    20    1
   20    19    21    1
   21    19    22    1
@<TRIPOS>SUBSTRUCTURE
       1 MOL1            1 RESIDUE      1      MOL     
@<SCITEGIC>MOL_PROPERTY
VConf Rank
SciTegic.value.IntegerValue
589

@<SCITEGIC>MOL_PROPERTY
Conf_Id
SciTegic.value.IntegerValue
43

@<SCITEGIC>MOL_PROPERTY
Delta U+W
SciTegic.value.DoubleValue
-0.129

@<SCITEGIC>MOL_PROPERTY
U+W
SciTegic.value.DoubleValue
-53.289

@<SCITEGIC>MOL_PROPERTY
Grad RMS
SciTegic.value.DoubleValue
0.000000

@<SCITEGIC>MOL_PROPERTY
U
SciTegic.value.DoubleValue
7.937

@<SCITEGIC>MOL_PROPERTY
W
SciTegic.value.DoubleValue
-61.225

@<SCITEGIC>MOL_PROPERTY
W(PB)
SciTegic.value.DoubleValue
-63.523

@<SCITEGIC>MOL_PROPERTY
W(SA)
SciTegic.value.DoubleValue
2.297

@<SCITEGIC>MOL_PROPERTY
Valence
SciTegic.value.DoubleValue
7.358

@<SCITEGIC>MOL_PROPERTY
Coulomb
SciTegic.value.DoubleValue
-0.022

@<SCITEGIC>MOL_PROPERTY
VdW
SciTegic.value.DoubleValue
0.601

@<SCITEGIC>MOL_PROPERTY
VdW6
SciTegic.value.DoubleValue
-7.363

@<SCITEGIC>MOL_PROPERTY
VdW12
SciTegic.value.DoubleValue
7.964

@<SCITEGIC>MOL_PROPERTY
Bond
SciTegic.value.DoubleValue
0.121

@<SCITEGIC>MOL_PROPERTY
Angle
SciTegic.value.DoubleValue
2.425

@<SCITEGIC>MOL_PROPERTY
Pdih
SciTegic.value.DoubleValue
4.811

@<SCITEGIC>MOL_PROPERTY
Idih
SciTegic.value.DoubleValue
0.000

@<SCITEGIC>MOL_PROPERTY
Tether
SciTegic.value.DoubleValue
0.000

@<TRIPOS>MOLECULE
guest-s21_confgen4.mol2 : confsearch ligand conformer 590
          22          21           1
SMALL
USER_CHARGES
 
@<TRIPOS>ATOM
       1    C1      19.322032   15.982588   23.873045 C.2        1 MOL1         0.6145
       2    O1      20.381003   15.450160   24.141381 O.co2      1 MOL1        -0.6735
       3    O2      18.503995   15.506165   23.111056 O.co2      1 MOL1        -0.6735
       4    C2      18.995771   17.313383   24.545108 C.3        1 MOL1        -0.1985
       5    H1      19.239030   17.211635   25.609304 H          1 MOL1         0.0740
       6    H2      17.913896   17.481906   24.481472 H          1 MOL1         0.0740
       7    C3      19.762166   18.524150   23.952081 C.3        1 MOL1        -0.1882
       8    H3      19.574231   19.406513   24.578704 H          1 MOL1         0.0742
       9    H4      20.842598   18.328486   23.997194 H          1 MOL1         0.0742
      10    C4      19.346940   18.835233   22.496608 C.3        1 MOL1        -0.1880
      11    H5      18.264261   19.017096   22.454795 H          1 MOL1         0.0742
      12    H6      19.547975   17.962597   21.859819 H          1 MOL1         0.0742
      13    C5      20.098693   20.062283   21.937436 C.3        1 MOL1        -0.1880
      14    H7      19.896955   20.936959   22.570920 H          1 MOL1         0.0742
      15    H8      21.181270   19.879628   21.979542 H          1 MOL1         0.0742
      16    C6      19.685109   20.373096   20.483684 C.3        1 MOL1        -0.1856
      17    H9      18.602904   20.558026   20.437886 H          1 MOL1         0.0742
      18    H10     19.887168   19.500864   19.846593 H          1 MOL1         0.0742
      19    C7      20.438281   21.598590   19.928478 C.3        1 MOL1        -0.2871
      20    H11     20.228980   22.493502   20.529079 H          1 MOL1         0.0754
      21    H12     20.132233   21.805042   18.894651 H          1 MOL1         0.0754
      22    H13     21.522896   21.428333   19.933308 H          1 MOL1         0.0754
@<TRIPOS>BOND
    1     1     2    1
    2     1     3    2
    3     1     4    1
    4     4     5    1
    5     4     6    1
    6     4     7    1
    7     7     8    1
    8     7     9    1
    9     7    10    1
   10    10    11    1
   11    10    12    1
   12    10    13    1
   13    13    14    1
   14    13    15    1
   15    13    16    1
   16    16    17    1
   17    16    18    1
   18    16    19    1
   19    19    20    1
   20    19    21    1
   21    19    22    1
@<TRIPOS>SUBSTRUCTURE
       1 MOL1            1 RESIDUE      1      MOL     
@<SCITEGIC>MOL_PROPERTY
VConf Rank
SciTegic.value.IntegerValue
590

@<SCITEGIC>MOL_PROPERTY
Conf_Id
SciTegic.value.IntegerValue
44

@<SCITEGIC>MOL_PROPERTY
Delta U+W
SciTegic.value.DoubleValue
-0.155

@<SCITEGIC>MOL_PROPERTY
U+W
SciTegic.value.DoubleValue
-53.314

@<SCITEGIC>MOL_PROPERTY
Grad RMS
SciTegic.value.DoubleValue
0.000000

@<SCITEGIC>MOL_PROPERTY
U
SciTegic.value.DoubleValue
7.937

@<SCITEGIC>MOL_PROPERTY
W
SciTegic.value.DoubleValue
-61.252

@<SCITEGIC>MOL_PROPERTY
W(PB)
SciTegic.value.DoubleValue
-63.556

@<SCITEGIC>MOL_PROPERTY
W(SA)
SciTegic.value.DoubleValue
2.304

@<SCITEGIC>MOL_PROPERTY
Valence
SciTegic.value.DoubleValue
7.358

@<SCITEGIC>MOL_PROPERTY
Coulomb
SciTegic.value.DoubleValue
-0.021

@<SCITEGIC>MOL_PROPERTY
VdW
SciTegic.value.DoubleValue
0.600

@<SCITEGIC>MOL_PROPERTY
VdW6
SciTegic.value.DoubleValue
-7.363

@<SCITEGIC>MOL_PROPERTY
VdW12
SciTegic.value.DoubleValue
7.964

@<SCITEGIC>MOL_PROPERTY
Bond
SciTegic.value.DoubleValue
0.121

@<SCITEGIC>MOL_PROPERTY
Angle
SciTegic.value.DoubleValue
2.425

@<SCITEGIC>MOL_PROPERTY
Pdih
SciTegic.value.DoubleValue
4.811

@<SCITEGIC>MOL_PROPERTY
Idih
SciTegic.value.DoubleValue
0.001

@<SCITEGIC>MOL_PROPERTY
Tether
SciTegic.value.DoubleValue
0.000

@<TRIPOS>MOLECULE
guest-s21_confgen4.mol2 : confsearch ligand conformer 591
          22          21           1
SMALL
USER_CHARGES
 
@<TRIPOS>ATOM
       1    C1      21.329690   15.954921   23.064845 C.2        1 MOL1         0.6145
       2    O1      21.221554   15.677745   24.243151 O.co2      1 MOL1        -0.6735
       3    O2      22.385363   15.932756   22.463238 O.co2      1 MOL1        -0.6735
       4    C2      20.066544   16.332617   22.296002 C.3        1 MOL1        -0.1985
       5    H1      19.292925   15.601569   22.558896 H          1 MOL1         0.0740
       6    H2      20.261296   16.216560   21.222926 H          1 MOL1         0.0740
       7    C3      19.548529   17.763812   22.594272 C.3        1 MOL1        -0.1882
       8    H3      18.565350   17.882823   22.121661 H          1 MOL1         0.0742
       9    H4      19.396643   17.877510   23.676587 H          1 MOL1         0.0742
      10    C4      20.510281   18.862375   22.081044 C.3        1 MOL1        -0.1880
      11    H5      20.627782   18.773211   20.992446 H          1 MOL1         0.0742
      12    H6      21.506940   18.699663   22.513696 H          1 MOL1         0.0742
      13    C5      20.054160   20.297153   22.437679 C.3        1 MOL1        -0.1880
      14    H7      19.936579   20.385795   23.526364 H          1 MOL1         0.0742
      15    H8      20.852864   20.996064   22.153955 H          1 MOL1         0.0742
      16    C6      18.744576   20.721725   21.735432 C.3        1 MOL1        -0.1856
      17    H9      17.913546   20.085541   22.066907 H          1 MOL1         0.0742
      18    H10     18.843548   20.581242   20.650230 H          1 MOL1         0.0742
      19    C7      18.396487   22.194497   22.031261 C.3        1 MOL1        -0.2871
      20    H11     18.264942   22.357741   23.108958 H          1 MOL1         0.0754
      21    H12     17.463099   22.479737   21.528778 H          1 MOL1         0.0754
      22    H13     19.190360   22.865095   21.677114 H          1 MOL1         0.0754
@<TRIPOS>BOND
    1     1     2    1
    2     1     3    2
    3     1     4    1
    4     4     5    1
    5     4     6    1
    6     4     7    1
    7     7     8    1
    8     7     9    1
    9     7    10    1
   10    10    11    1
   11    10    12    1
   12    10    13    1
   13    13    14    1
   14    13    15    1
   15    13    16    1
   16    16    17    1
   17    16    18    1
   18    16    19    1
   19    19    20    1
   20    19    21    1
   21    19    22    1
@<TRIPOS>SUBSTRUCTURE
       1 MOL1            1 RESIDUE      1      MOL     
@<SCITEGIC>MOL_PROPERTY
VConf Rank
SciTegic.value.IntegerValue
591

@<SCITEGIC>MOL_PROPERTY
Conf_Id
SciTegic.value.IntegerValue
53

@<SCITEGIC>MOL_PROPERTY
Delta U+W
SciTegic.value.DoubleValue
0.723

@<SCITEGIC>MOL_PROPERTY
U+W
SciTegic.value.DoubleValue
-52.436

@<SCITEGIC>MOL_PROPERTY
Grad RMS
SciTegic.value.DoubleValue
0.000000

@<SCITEGIC>MOL_PROPERTY
U
SciTegic.value.DoubleValue
8.587

@<SCITEGIC>MOL_PROPERTY
W
SciTegic.value.DoubleValue
-61.022

@<SCITEGIC>MOL_PROPERTY
W(PB)
SciTegic.value.DoubleValue
-63.285

@<SCITEGIC>MOL_PROPERTY
W(SA)
SciTegic.value.DoubleValue
2.263

@<SCITEGIC>MOL_PROPERTY
Valence
SciTegic.value.DoubleValue
7.933

@<SCITEGIC>MOL_PROPERTY
Coulomb
SciTegic.value.DoubleValue
-0.124

@<SCITEGIC>MOL_PROPERTY
VdW
SciTegic.value.DoubleValue
0.778

@<SCITEGIC>MOL_PROPERTY
VdW6
SciTegic.value.DoubleValue
-7.981

@<SCITEGIC>MOL_PROPERTY
VdW12
SciTegic.value.DoubleValue
8.759

@<SCITEGIC>MOL_PROPERTY
Bond
SciTegic.value.DoubleValue
0.160

@<SCITEGIC>MOL_PROPERTY
Angle
SciTegic.value.DoubleValue
2.698

@<SCITEGIC>MOL_PROPERTY
Pdih
SciTegic.value.DoubleValue
5.074

@<SCITEGIC>MOL_PROPERTY
Idih
SciTegic.value.DoubleValue
0.001

@<SCITEGIC>MOL_PROPERTY
Tether
SciTegic.value.DoubleValue
0.000

@<TRIPOS>MOLECULE
guest-s21_confgen4.mol2 : confsearch ligand conformer 592
          22          21           1
SMALL
USER_CHARGES
 
@<TRIPOS>ATOM
       1    C1      22.679097   17.913396   23.577257 C.2        1 MOL1         0.6145
       2    O1      22.574885   16.740496   23.877281 O.co2      1 MOL1        -0.6735
       3    O2      23.719036   18.537325   23.653562 O.co2      1 MOL1        -0.6735
       4    C2      21.442556   18.636292   23.055351 C.3        1 MOL1        -0.1985
       5    H1      21.516015   19.690993   23.346023 H          1 MOL1         0.0740
       6    H2      20.570807   18.212303   23.566249 H          1 MOL1         0.0740
       7    C3      21.279031   18.513375   21.519354 C.3        1 MOL1        -0.1882
       8    H3      22.219855   18.817278   21.039859 H          1 MOL1         0.0742
       9    H4      21.126840   17.457656   21.255629 H          1 MOL1         0.0742
      10    C4      20.128701   19.367165   20.929057 C.3        1 MOL1        -0.1880
      11    H5      20.144771   19.234554   19.838597 H          1 MOL1         0.0742
      12    H6      20.323424   20.434386   21.102481 H          1 MOL1         0.0742
      13    C5      18.715556   18.988482   21.440262 C.3        1 MOL1        -0.1880
      14    H7      18.004038   19.099544   20.610564 H          1 MOL1         0.0742
      15    H8      18.688951   17.927853   21.725429 H          1 MOL1         0.0742
      16    C6      18.229677   19.873616   22.611250 C.3        1 MOL1        -0.1856
      17    H9      18.207038   20.924808   22.292384 H          1 MOL1         0.0742
      18    H10     18.928353   19.816658   23.454443 H          1 MOL1         0.0742
      19    C7      16.824328   19.456928   23.089473 C.3        1 MOL1        -0.2871
      20    H11     16.091133   19.542094   22.276759 H          1 MOL1         0.0754
      21    H12     16.490793   20.098406   23.915484 H          1 MOL1         0.0754
      22    H13     16.823102   18.418260   23.445180 H          1 MOL1         0.0754
@<TRIPOS>BOND
    1     1     2    1
    2     1     3    2
    3     1     4    1
    4     4     5    1
    5     4     6    1
    6     4     7    1
    7     7     8    1
    8     7     9    1
    9     7    10    1
   10    10    11    1
   11    10    12    1
   12    10    13    1
   13    13    14    1
   14    13    15    1
   15    13    16    1
   16    16    17    1
   17    16    18    1
   18    16    19    1
   19    19    20    1
   20    19    21    1
   21    19    22    1
@<TRIPOS>SUBSTRUCTURE
       1 MOL1            1 RESIDUE      1      MOL     
@<SCITEGIC>MOL_PROPERTY
VConf Rank
SciTegic.value.IntegerValue
592

@<SCITEGIC>MOL_PROPERTY
Conf_Id
SciTegic.value.IntegerValue
5

@<SCITEGIC>MOL_PROPERTY
Delta U+W
SciTegic.value.DoubleValue
2.167

@<SCITEGIC>MOL_PROPERTY
U+W
SciTegic.value.DoubleValue
-50.993

@<SCITEGIC>MOL_PROPERTY
Grad RMS
SciTegic.value.DoubleValue
0.000000

@<SCITEGIC>MOL_PROPERTY
U
SciTegic.value.DoubleValue
10.045

@<SCITEGIC>MOL_PROPERTY
W
SciTegic.value.DoubleValue
-61.037

@<SCITEGIC>MOL_PROPERTY
W(PB)
SciTegic.value.DoubleValue
-63.303

@<SCITEGIC>MOL_PROPERTY
W(SA)
SciTegic.value.DoubleValue
2.266

@<SCITEGIC>MOL_PROPERTY
Valence
SciTegic.value.DoubleValue
10.100

@<SCITEGIC>MOL_PROPERTY
Coulomb
SciTegic.value.DoubleValue
-0.883

@<SCITEGIC>MOL_PROPERTY
VdW
SciTegic.value.DoubleValue
0.828

@<SCITEGIC>MOL_PROPERTY
VdW6
SciTegic.value.DoubleValue
-8.177

@<SCITEGIC>MOL_PROPERTY
VdW12
SciTegic.value.DoubleValue
9.005

@<SCITEGIC>MOL_PROPERTY
Bond
SciTegic.value.DoubleValue
0.182

@<SCITEGIC>MOL_PROPERTY
Angle
SciTegic.value.DoubleValue
2.988

@<SCITEGIC>MOL_PROPERTY
Pdih
SciTegic.value.DoubleValue
6.930

@<SCITEGIC>MOL_PROPERTY
Idih
SciTegic.value.DoubleValue
0.001

@<SCITEGIC>MOL_PROPERTY
Tether
SciTegic.value.DoubleValue
0.000

@<TRIPOS>MOLECULE
guest-s21_confgen4.mol2 : confsearch ligand conformer 593
          22          21           1
SMALL
USER_CHARGES
 
@<TRIPOS>ATOM
       1    C1      19.892188   16.431056   24.602545 C.2        1 MOL1         0.6145
       2    O1      20.343307   16.852763   25.649074 O.co2      1 MOL1        -0.6735
       3    O2      19.584681   15.269367   24.422263 O.co2      1 MOL1        -0.6735
       4    C2      19.724004   17.408241   23.444604 C.3        1 MOL1        -0.1985
       5    H1      19.467227   18.384842   23.870100 H          1 MOL1         0.0740
       6    H2      18.871969   17.076486   22.839412 H          1 MOL1         0.0740
       7    C3      20.994849   17.521316   22.565224 C.3        1 MOL1        -0.1882
       8    H3      21.816602   17.930629   23.168912 H          1 MOL1         0.0742
       9    H4      21.306928   16.511054   22.266226 H          1 MOL1         0.0742
      10    C4      20.812994   18.377733   21.286886 C.3        1 MOL1        -0.1880
      11    H5      20.061089   17.919892   20.629639 H          1 MOL1         0.0742
      12    H6      21.758325   18.342464   20.728269 H          1 MOL1         0.0742
      13    C5      20.463329   19.864422   21.549948 C.3        1 MOL1        -0.1880
      14    H7      20.868300   20.181391   22.520768 H          1 MOL1         0.0742
      15    H8      20.968263   20.479884   20.792821 H          1 MOL1         0.0742
      16    C6      18.947438   20.160008   21.476040 C.3        1 MOL1        -0.1856
      17    H9      18.397900   19.543459   22.197317 H          1 MOL1         0.0742
      18    H10     18.568862   19.891305   20.480212 H          1 MOL1         0.0742
      19    C7      18.647573   21.647461   21.749712 C.3        1 MOL1        -0.2871
      20    H11     18.986459   21.937702   22.752845 H          1 MOL1         0.0754
      21    H12     17.569166   21.842646   21.686662 H          1 MOL1         0.0754
      22    H13     19.152016   22.291455   21.017495 H          1 MOL1         0.0754
@<TRIPOS>BOND
    1     1     2    1
    2     1     3    2
    3     1     4    1
    4     4     5    1
    5     4     6    1
    6     4     7    1
    7     7     8    1
    8     7     9    1
    9     7    10    1
   10    10    11    1
   11    10    12    1
   12    10    13    1
   13    13    14    1
   14    13    15    1
   15    13    16    1
   16    16    17    1
   17    16    18    1
   18    16    19    1
   19    19    20    1
   20    19    21    1
   21    19    22    1
@<TRIPOS>SUBSTRUCTURE
       1 MOL1            1 RESIDUE      1      MOL     
@<SCITEGIC>MOL_PROPERTY
VConf Rank
SciTegic.value.IntegerValue
593

@<SCITEGIC>MOL_PROPERTY
Conf_Id
SciTegic.value.IntegerValue
6

@<SCITEGIC>MOL_PROPERTY
Delta U+W
SciTegic.value.DoubleValue
2.118

@<SCITEGIC>MOL_PROPERTY
U+W
SciTegic.value.DoubleValue
-51.042

@<SCITEGIC>MOL_PROPERTY
Grad RMS
SciTegic.value.DoubleValue
0.000000

@<SCITEGIC>MOL_PROPERTY
U
SciTegic.value.DoubleValue
10.045

@<SCITEGIC>MOL_PROPERTY
W
SciTegic.value.DoubleValue
-61.086

@<SCITEGIC>MOL_PROPERTY
W(PB)
SciTegic.value.DoubleValue
-63.356

@<SCITEGIC>MOL_PROPERTY
W(SA)
SciTegic.value.DoubleValue
2.270

@<SCITEGIC>MOL_PROPERTY
Valence
SciTegic.value.DoubleValue
10.100

@<SCITEGIC>MOL_PROPERTY
Coulomb
SciTegic.value.DoubleValue
-0.883

@<SCITEGIC>MOL_PROPERTY
VdW
SciTegic.value.DoubleValue
0.828

@<SCITEGIC>MOL_PROPERTY
VdW6
SciTegic.value.DoubleValue
-8.177

@<SCITEGIC>MOL_PROPERTY
VdW12
SciTegic.value.DoubleValue
9.004

@<SCITEGIC>MOL_PROPERTY
Bond
SciTegic.value.DoubleValue
0.182

@<SCITEGIC>MOL_PROPERTY
Angle
SciTegic.value.DoubleValue
2.988

@<SCITEGIC>MOL_PROPERTY
Pdih
SciTegic.value.DoubleValue
6.930

@<SCITEGIC>MOL_PROPERTY
Idih
SciTegic.value.DoubleValue
0.001

@<SCITEGIC>MOL_PROPERTY
Tether
SciTegic.value.DoubleValue
0.000

@<TRIPOS>MOLECULE
guest-s21_confgen4.mol2 : confsearch ligand conformer 594
          22          21           1
SMALL
USER_CHARGES
 
@<TRIPOS>ATOM
       1    C1      21.488865   17.311806   21.531611 C.2        1 MOL1         0.6145
       2    O1      22.340953   18.017944   21.028807 O.co2      1 MOL1        -0.6735
       3    O2      20.707211   16.641598   20.885939 O.co2      1 MOL1        -0.6735
       4    C2      21.441890   17.204727   23.054694 C.3        1 MOL1        -0.1985
       5    H1      22.395515   16.759955   23.361790 H          1 MOL1         0.0740
       6    H2      20.657760   16.492218   23.338093 H          1 MOL1         0.0740
       7    C3      21.245299   18.549900   23.808978 C.3        1 MOL1        -0.1882
       8    H3      21.589883   18.412188   24.842767 H          1 MOL1         0.0742
       9    H4      21.895566   19.321724   23.374221 H          1 MOL1         0.0742
      10    C4      19.782648   19.056485   23.863160 C.3        1 MOL1        -0.1880
      11    H5      19.744222   19.917572   24.544355 H          1 MOL1         0.0742
      12    H6      19.139912   18.283587   24.306271 H          1 MOL1         0.0742
      13    C5      19.212095   19.482930   22.491620 C.3        1 MOL1        -0.1880
      14    H7      19.907518   20.179038   22.002879 H          1 MOL1         0.0742
      15    H8      19.120830   18.607119   21.836877 H          1 MOL1         0.0742
      16    C6      17.827013   20.149078   22.632116 C.3        1 MOL1        -0.1856
      17    H9      17.904381   21.034052   23.278793 H          1 MOL1         0.0742
      18    H10     17.130770   19.454638   23.122435 H          1 MOL1         0.0742
      19    C7      17.255608   20.565392   21.261861 C.3        1 MOL1        -0.2871
      20    H11     17.917942   21.284706   20.762593 H          1 MOL1         0.0754
      21    H12     16.270899   21.036000   21.379764 H          1 MOL1         0.0754
      22    H13     17.138704   19.693873   20.604373 H          1 MOL1         0.0754
@<TRIPOS>BOND
    1     1     2    1
    2     1     3    2
    3     1     4    1
    4     4     5    1
    5     4     6    1
    6     4     7    1
    7     7     8    1
    8     7     9    1
    9     7    10    1
   10    10    11    1
   11    10    12    1
   12    10    13    1
   13    13    14    1
   14    13    15    1
   15    13    16    1
   16    16    17    1
   17    16    18    1
   18    16    19    1
   19    19    20    1
   20    19    21    1
   21    19    22    1
@<TRIPOS>SUBSTRUCTURE
       1 MOL1            1 RESIDUE      1      MOL     
@<SCITEGIC>MOL_PROPERTY
VConf Rank
SciTegic.value.IntegerValue
594

@<SCITEGIC>MOL_PROPERTY
Conf_Id
SciTegic.value.IntegerValue
8

@<SCITEGIC>MOL_PROPERTY
Delta U+W
SciTegic.value.DoubleValue
1.886

@<SCITEGIC>MOL_PROPERTY
U+W
SciTegic.value.DoubleValue
-51.274

@<SCITEGIC>MOL_PROPERTY
Grad RMS
SciTegic.value.DoubleValue
0.000000

@<SCITEGIC>MOL_PROPERTY
U
SciTegic.value.DoubleValue
11.237

@<SCITEGIC>MOL_PROPERTY
W
SciTegic.value.DoubleValue
-62.510

@<SCITEGIC>MOL_PROPERTY
W(PB)
SciTegic.value.DoubleValue
-64.777

@<SCITEGIC>MOL_PROPERTY
W(SA)
SciTegic.value.DoubleValue
2.267

@<SCITEGIC>MOL_PROPERTY
Valence
SciTegic.value.DoubleValue
9.029

@<SCITEGIC>MOL_PROPERTY
Coulomb
SciTegic.value.DoubleValue
1.667

@<SCITEGIC>MOL_PROPERTY
VdW
SciTegic.value.DoubleValue
0.540

@<SCITEGIC>MOL_PROPERTY
VdW6
SciTegic.value.DoubleValue
-8.825

@<SCITEGIC>MOL_PROPERTY
VdW12
SciTegic.value.DoubleValue
9.365

@<SCITEGIC>MOL_PROPERTY
Bond
SciTegic.value.DoubleValue
0.186

@<SCITEGIC>MOL_PROPERTY
Angle
SciTegic.value.DoubleValue
3.195

@<SCITEGIC>MOL_PROPERTY
Pdih
SciTegic.value.DoubleValue
5.642

@<SCITEGIC>MOL_PROPERTY
Idih
SciTegic.value.DoubleValue
0.007

@<SCITEGIC>MOL_PROPERTY
Tether
SciTegic.value.DoubleValue
0.000

@<TRIPOS>MOLECULE
guest-s21_confgen4.mol2 : confsearch ligand conformer 595
          22          21           1
SMALL
USER_CHARGES
 
@<TRIPOS>ATOM
       1    C1      19.019466   19.390493   25.436933 C.2        1 MOL1         0.6145
       2    O1      17.857666   19.588161   25.140436 O.co2      1 MOL1        -0.6735
       3    O2      19.648498   20.098596   26.198654 O.co2      1 MOL1        -0.6735
       4    C2      19.719924   18.170416   24.845381 C.3        1 MOL1        -0.1985
       5    H1      18.962442   17.500600   24.423153 H          1 MOL1         0.0740
       6    H2      20.183869   17.626857   25.676658 H          1 MOL1         0.0740
       7    C3      20.804706   18.511218   23.786963 C.3        1 MOL1        -0.1882
       8    H3      21.585587   19.116530   24.267744 H          1 MOL1         0.0742
       9    H4      21.293215   17.583487   23.459846 H          1 MOL1         0.0742
      10    C4      20.278168   19.274657   22.546539 C.3        1 MOL1        -0.1880
      11    H5      21.140289   19.541281   21.922318 H          1 MOL1         0.0742
      12    H6      19.818878   20.221743   22.861188 H          1 MOL1         0.0742
      13    C5      19.264520   18.460160   21.705972 C.3        1 MOL1        -0.1880
      14    H7      19.713272   17.503559   21.405925 H          1 MOL1         0.0742
      15    H8      18.392207   18.216921   22.326325 H          1 MOL1         0.0742
      16    C6      18.761794   19.212624   20.451753 C.3        1 MOL1        -0.1856
      17    H9      18.326320   20.177018   20.747868 H          1 MOL1         0.0742
      18    H10     17.947661   18.631782   19.996795 H          1 MOL1         0.0742
      19    C7      19.859922   19.440350   19.390118 C.3        1 MOL1        -0.2871
      20    H11     20.640083   20.118228   19.757786 H          1 MOL1         0.0754
      21    H12     19.430727   19.889261   18.485039 H          1 MOL1         0.0754
      22    H13     20.333288   18.491886   19.104744 H          1 MOL1         0.0754
@<TRIPOS>BOND
    1     1     2    1
    2     1     3    2
    3     1     4    1
    4     4     5    1
    5     4     6    1
    6     4     7    1
    7     7     8    1
    8     7     9    1
    9     7    10    1
   10    10    11    1
   11    10    12    1
   12    10    13    1
   13    13    14    1
   14    13    15    1
   15    13    16    1
   16    16    17    1
   17    16    18    1
   18    16    19    1
   19    19    20    1
   20    19    21    1
   21    19    22    1
@<TRIPOS>SUBSTRUCTURE
       1 MOL1            1 RESIDUE      1      MOL     
@<SCITEGIC>MOL_PROPERTY
VConf Rank
SciTegic.value.IntegerValue
595

@<SCITEGIC>MOL_PROPERTY
Conf_Id
SciTegic.value.IntegerValue
93

@<SCITEGIC>MOL_PROPERTY
Delta U+W
SciTegic.value.DoubleValue
1.836

@<SCITEGIC>MOL_PROPERTY
U+W
SciTegic.value.DoubleValue
-51.323

@<SCITEGIC>MOL_PROPERTY
Grad RMS
SciTegic.value.DoubleValue
0.000000

@<SCITEGIC>MOL_PROPERTY
U
SciTegic.value.DoubleValue
10.427

@<SCITEGIC>MOL_PROPERTY
W
SciTegic.value.DoubleValue
-61.751

@<SCITEGIC>MOL_PROPERTY
W(PB)
SciTegic.value.DoubleValue
-63.980

@<SCITEGIC>MOL_PROPERTY
W(SA)
SciTegic.value.DoubleValue
2.230

@<SCITEGIC>MOL_PROPERTY
Valence
SciTegic.value.DoubleValue
8.446

@<SCITEGIC>MOL_PROPERTY
Coulomb
SciTegic.value.DoubleValue
1.306

@<SCITEGIC>MOL_PROPERTY
VdW
SciTegic.value.DoubleValue
0.676

@<SCITEGIC>MOL_PROPERTY
VdW6
SciTegic.value.DoubleValue
-8.928

@<SCITEGIC>MOL_PROPERTY
VdW12
SciTegic.value.DoubleValue
9.604

@<SCITEGIC>MOL_PROPERTY
Bond
SciTegic.value.DoubleValue
0.209

@<SCITEGIC>MOL_PROPERTY
Angle
SciTegic.value.DoubleValue
3.066

@<SCITEGIC>MOL_PROPERTY
Pdih
SciTegic.value.DoubleValue
5.170

@<SCITEGIC>MOL_PROPERTY
Idih
SciTegic.value.DoubleValue
0.001

@<SCITEGIC>MOL_PROPERTY
Tether
SciTegic.value.DoubleValue
0.000

@<TRIPOS>MOLECULE
guest-s21_confgen4.mol2 : confsearch ligand conformer 596
          22          21           1
SMALL
USER_CHARGES
 
@<TRIPOS>ATOM
       1    C1      18.566589   16.441895   21.412715 C.2        1 MOL1         0.6145
       2    O1      18.558713   16.082035   20.251791 O.co2      1 MOL1        -0.6735
       3    O2      17.558464   16.632097   22.064078 O.co2      1 MOL1        -0.6735
       4    C2      19.917288   16.635734   22.096238 C.3        1 MOL1        -0.1985
       5    H1      20.510244   15.733410   21.906667 H          1 MOL1         0.0740
       6    H2      19.759812   16.679572   23.179746 H          1 MOL1         0.0740
       7    C3      20.706097   17.880152   21.603943 C.3        1 MOL1        -0.1882
       8    H3      21.683337   17.908693   22.104463 H          1 MOL1         0.0742
       9    H4      20.913634   17.761887   20.531437 H          1 MOL1         0.0742
      10    C4      19.981534   19.231309   21.823286 C.3        1 MOL1        -0.1880
      11    H5      19.017700   19.225268   21.296111 H          1 MOL1         0.0742
      12    H6      20.585302   20.018854   21.355063 H          1 MOL1         0.0742
      13    C5      19.754557   19.573714   23.316164 C.3        1 MOL1        -0.1880
      14    H7      19.129224   18.796922   23.774954 H          1 MOL1         0.0742
      15    H8      20.713869   19.561362   23.851011 H          1 MOL1         0.0742
      16    C6      19.057154   20.936783   23.534487 C.3        1 MOL1        -0.1856
      17    H9      18.805254   21.035587   24.599363 H          1 MOL1         0.0742
      18    H10     18.104349   20.957415   22.987570 H          1 MOL1         0.0742
      19    C7      19.924134   22.144716   23.117292 C.3        1 MOL1        -0.2871
      20    H11     20.101926   22.157171   22.034894 H          1 MOL1         0.0754
      21    H12     20.896450   22.125051   23.626521 H          1 MOL1         0.0754
      22    H13     19.423550   23.085186   23.381544 H          1 MOL1         0.0754
@<TRIPOS>BOND
    1     1     2    1
    2     1     3    2
    3     1     4    1
    4     4     5    1
    5     4     6    1
    6     4     7    1
    7     7     8    1
    8     7     9    1
    9     7    10    1
   10    10    11    1
   11    10    12    1
   12    10    13    1
   13    13    14    1
   14    13    15    1
   15    13    16    1
   16    16    17    1
   17    16    18    1
   18    16    19    1
   19    19    20    1
   20    19    21    1
   21    19    22    1
@<TRIPOS>SUBSTRUCTURE
       1 MOL1            1 RESIDUE      1      MOL     
@<SCITEGIC>MOL_PROPERTY
VConf Rank
SciTegic.value.IntegerValue
596

@<SCITEGIC>MOL_PROPERTY
Conf_Id
SciTegic.value.IntegerValue
70

@<SCITEGIC>MOL_PROPERTY
Delta U+W
SciTegic.value.DoubleValue
1.803

@<SCITEGIC>MOL_PROPERTY
U+W
SciTegic.value.DoubleValue
-51.356

@<SCITEGIC>MOL_PROPERTY
Grad RMS
SciTegic.value.DoubleValue
0.000000

@<SCITEGIC>MOL_PROPERTY
U
SciTegic.value.DoubleValue
10.428

@<SCITEGIC>MOL_PROPERTY
W
SciTegic.value.DoubleValue
-61.784

@<SCITEGIC>MOL_PROPERTY
W(PB)
SciTegic.value.DoubleValue
-64.014

@<SCITEGIC>MOL_PROPERTY
W(SA)
SciTegic.value.DoubleValue
2.230

@<SCITEGIC>MOL_PROPERTY
Valence
SciTegic.value.DoubleValue
8.445

@<SCITEGIC>MOL_PROPERTY
Coulomb
SciTegic.value.DoubleValue
1.306

@<SCITEGIC>MOL_PROPERTY
VdW
SciTegic.value.DoubleValue
0.676

@<SCITEGIC>MOL_PROPERTY
VdW6
SciTegic.value.DoubleValue
-8.929

@<SCITEGIC>MOL_PROPERTY
VdW12
SciTegic.value.DoubleValue
9.605

@<SCITEGIC>MOL_PROPERTY
Bond
SciTegic.value.DoubleValue
0.209

@<SCITEGIC>MOL_PROPERTY
Angle
SciTegic.value.DoubleValue
3.066

@<SCITEGIC>MOL_PROPERTY
Pdih
SciTegic.value.DoubleValue
5.170

@<SCITEGIC>MOL_PROPERTY
Idih
SciTegic.value.DoubleValue
0.001

@<SCITEGIC>MOL_PROPERTY
Tether
SciTegic.value.DoubleValue
0.000

@<TRIPOS>MOLECULE
guest-s21_confgen4.mol2 : confsearch ligand conformer 597
          22          21           1
SMALL
USER_CHARGES
 
@<TRIPOS>ATOM
       1    C1      19.613296   17.623752   19.365948 C.2        1 MOL1         0.6145
       2    O1      19.410349   16.447952   19.596645 O.co2      1 MOL1        -0.6735
       3    O2      20.567220   18.029607   18.731764 O.co2      1 MOL1        -0.6735
       4    C2      18.602416   18.643007   19.883960 C.3        1 MOL1        -0.1985
       5    H1      17.601415   18.255329   19.660934 H          1 MOL1         0.0740
       6    H2      18.717496   19.571901   19.312339 H          1 MOL1         0.0740
       7    C3      18.719993   18.930056   21.403421 C.3        1 MOL1        -0.1882
       8    H3      17.879944   19.566593   21.712297 H          1 MOL1         0.0742
       9    H4      18.621059   17.984356   21.952506 H          1 MOL1         0.0742
      10    C4      20.051518   19.626579   21.772825 C.3        1 MOL1        -0.1880
      11    H5      20.170385   20.522976   21.148979 H          1 MOL1         0.0742
      12    H6      20.896964   18.967641   21.531313 H          1 MOL1         0.0742
      13    C5      20.134768   20.047844   23.259140 C.3        1 MOL1        -0.1880
      14    H7      21.049914   20.638458   23.402570 H          1 MOL1         0.0742
      15    H8      19.294716   20.713141   23.501126 H          1 MOL1         0.0742
      16    C6      20.151231   18.851986   24.237823 C.3        1 MOL1        -0.1856
      17    H9      20.958884   18.159544   23.963067 H          1 MOL1         0.0742
      18    H10     19.210083   18.291243   24.165940 H          1 MOL1         0.0742
      19    C7      20.348189   19.316450   25.694948 C.3        1 MOL1        -0.2871
      20    H11     21.300933   19.849176   25.812566 H          1 MOL1         0.0754
      21    H12     20.354481   18.456635   26.377399 H          1 MOL1         0.0754
      22    H13     19.538196   19.989572   26.005095 H          1 MOL1         0.0754
@<TRIPOS>BOND
    1     1     2    1
    2     1     3    2
    3     1     4    1
    4     4     5    1
    5     4     6    1
    6     4     7    1
    7     7     8    1
    8     7     9    1
    9     7    10    1
   10    10    11    1
   11    10    12    1
   12    10    13    1
   13    13    14    1
   14    13    15    1
   15    13    16    1
   16    16    17    1
   17    16    18    1
   18    16    19    1
   19    19    20    1
   20    19    21    1
   21    19    22    1
@<TRIPOS>SUBSTRUCTURE
       1 MOL1            1 RESIDUE      1      MOL     
@<SCITEGIC>MOL_PROPERTY
VConf Rank
SciTegic.value.IntegerValue
597

@<SCITEGIC>MOL_PROPERTY
Conf_Id
SciTegic.value.IntegerValue
85

@<SCITEGIC>MOL_PROPERTY
Delta U+W
SciTegic.value.DoubleValue
0.707

@<SCITEGIC>MOL_PROPERTY
U+W
SciTegic.value.DoubleValue
-52.452

@<SCITEGIC>MOL_PROPERTY
Grad RMS
SciTegic.value.DoubleValue
0.000000

@<SCITEGIC>MOL_PROPERTY
U
SciTegic.value.DoubleValue
8.925

@<SCITEGIC>MOL_PROPERTY
W
SciTegic.value.DoubleValue
-61.378

@<SCITEGIC>MOL_PROPERTY
W(PB)
SciTegic.value.DoubleValue
-63.661

@<SCITEGIC>MOL_PROPERTY
W(SA)
SciTegic.value.DoubleValue
2.283

@<SCITEGIC>MOL_PROPERTY
Valence
SciTegic.value.DoubleValue
7.881

@<SCITEGIC>MOL_PROPERTY
Coulomb
SciTegic.value.DoubleValue
0.349

@<SCITEGIC>MOL_PROPERTY
VdW
SciTegic.value.DoubleValue
0.695

@<SCITEGIC>MOL_PROPERTY
VdW6
SciTegic.value.DoubleValue
-8.049

@<SCITEGIC>MOL_PROPERTY
VdW12
SciTegic.value.DoubleValue
8.743

@<SCITEGIC>MOL_PROPERTY
Bond
SciTegic.value.DoubleValue
0.156

@<SCITEGIC>MOL_PROPERTY
Angle
SciTegic.value.DoubleValue
2.660

@<SCITEGIC>MOL_PROPERTY
Pdih
SciTegic.value.DoubleValue
5.064

@<SCITEGIC>MOL_PROPERTY
Idih
SciTegic.value.DoubleValue
0.001

@<SCITEGIC>MOL_PROPERTY
Tether
SciTegic.value.DoubleValue
0.000

@<TRIPOS>MOLECULE
guest-s21_confgen4.mol2 : confsearch ligand conformer 598
          22          21           1
SMALL
USER_CHARGES
 
@<TRIPOS>ATOM
       1    C1      17.101666   20.719127   22.041420 C.2        1 MOL1         0.6145
       2    O1      16.247879   20.431129   22.856923 O.co2      1 MOL1        -0.6735
       3    O2      17.433590   21.861026   21.790687 O.co2      1 MOL1        -0.6735
       4    C2      17.778741   19.587878   21.272498 C.3        1 MOL1        -0.1985
       5    H1      17.792889   19.874855   20.214464 H          1 MOL1         0.0740
       6    H2      17.155149   18.688936   21.349258 H          1 MOL1         0.0740
       7    C3      19.223876   19.278811   21.743400 C.3        1 MOL1        -0.1882
       8    H3      19.673759   18.571038   21.035890 H          1 MOL1         0.0742
       9    H4      19.824545   20.198092   21.706030 H          1 MOL1         0.0742
      10    C4      19.270032   18.677328   23.167187 C.3        1 MOL1        -0.1880
      11    H5      18.739243   17.715604   23.174305 H          1 MOL1         0.0742
      12    H6      18.721214   19.335270   23.854758 H          1 MOL1         0.0742
      13    C5      20.700604   18.480528   23.728663 C.3        1 MOL1        -0.1880
      14    H7      21.208642   19.450939   23.813094 H          1 MOL1         0.0742
      15    H8      20.602577   18.105171   24.756459 H          1 MOL1         0.0742
      16    C6      21.578607   17.482341   22.933278 C.3        1 MOL1        -0.1856
      17    H9      20.947644   16.737950   22.428325 H          1 MOL1         0.0742
      18    H10     22.203422   16.922009   23.642455 H          1 MOL1         0.0742
      19    C7      22.514065   18.171545   21.914973 C.3        1 MOL1        -0.2871
      20    H11     21.953118   18.739678   21.164328 H          1 MOL1         0.0754
      21    H12     23.121543   17.425900   21.386010 H          1 MOL1         0.0754
      22    H13     23.198916   18.864189   22.421244 H          1 MOL1         0.0754
@<TRIPOS>BOND
    1     1     2    1
    2     1     3    2
    3     1     4    1
    4     4     5    1
    5     4     6    1
    6     4     7    1
    7     7     8    1
    8     7     9    1
    9     7    10    1
   10    10    11    1
   11    10    12    1
   12    10    13    1
   13    13    14    1
   14    13    15    1
   15    13    16    1
   16    16    17    1
   17    16    18    1
   18    16    19    1
   19    19    20    1
   20    19    21    1
   21    19    22    1
@<TRIPOS>SUBSTRUCTURE
       1 MOL1            1 RESIDUE      1      MOL     
@<SCITEGIC>MOL_PROPERTY
VConf Rank
SciTegic.value.IntegerValue
598

@<SCITEGIC>MOL_PROPERTY
Conf_Id
SciTegic.value.IntegerValue
82

@<SCITEGIC>MOL_PROPERTY
Delta U+W
SciTegic.value.DoubleValue
3.438

@<SCITEGIC>MOL_PROPERTY
U+W
SciTegic.value.DoubleValue
-49.721

@<SCITEGIC>MOL_PROPERTY
Grad RMS
SciTegic.value.DoubleValue
0.000000

@<SCITEGIC>MOL_PROPERTY
U
SciTegic.value.DoubleValue
11.773

@<SCITEGIC>MOL_PROPERTY
W
SciTegic.value.DoubleValue
-61.495

@<SCITEGIC>MOL_PROPERTY
W(PB)
SciTegic.value.DoubleValue
-63.749

@<SCITEGIC>MOL_PROPERTY
W(SA)
SciTegic.value.DoubleValue
2.254

@<SCITEGIC>MOL_PROPERTY
Valence
SciTegic.value.DoubleValue
10.419

@<SCITEGIC>MOL_PROPERTY
Coulomb
SciTegic.value.DoubleValue
0.565

@<SCITEGIC>MOL_PROPERTY
VdW
SciTegic.value.DoubleValue
0.789

@<SCITEGIC>MOL_PROPERTY
VdW6
SciTegic.value.DoubleValue
-8.847

@<SCITEGIC>MOL_PROPERTY
VdW12
SciTegic.value.DoubleValue
9.636

@<SCITEGIC>MOL_PROPERTY
Bond
SciTegic.value.DoubleValue
0.200

@<SCITEGIC>MOL_PROPERTY
Angle
SciTegic.value.DoubleValue
3.187

@<SCITEGIC>MOL_PROPERTY
Pdih
SciTegic.value.DoubleValue
7.032

@<SCITEGIC>MOL_PROPERTY
Idih
SciTegic.value.DoubleValue
0.001

@<SCITEGIC>MOL_PROPERTY
Tether
SciTegic.value.DoubleValue
0.000

@<TRIPOS>MOLECULE
guest-s21_confgen4.mol2 : confsearch ligand conformer 599
          22          21           1
SMALL
USER_CHARGES
 
@<TRIPOS>ATOM
       1    C1      18.888642   20.477004   19.628592 C.2        1 MOL1         0.6145
       2    O1      17.690015   20.307261   19.521564 O.co2      1 MOL1        -0.6735
       3    O2      19.431082   21.553880   19.476818 O.co2      1 MOL1        -0.6735
       4    C2      19.760950   19.266083   19.948197 C.3        1 MOL1        -0.1985
       5    H1      20.797534   19.498458   19.675522 H          1 MOL1         0.0740
       6    H2      19.436551   18.448126   19.294206 H          1 MOL1         0.0740
       7    C3      19.686857   18.805371   21.427368 C.3        1 MOL1        -0.1882
       8    H3      18.638578   18.621498   21.700459 H          1 MOL1         0.0742
       9    H4      20.215988   17.848443   21.518005 H          1 MOL1         0.0742
      10    C4      20.312793   19.829895   22.401861 C.3        1 MOL1        -0.1880
      11    H5      19.857521   20.814989   22.231103 H          1 MOL1         0.0742
      12    H6      21.381701   19.942972   22.175258 H          1 MOL1         0.0742
      13    C5      20.138493   19.472363   23.899298 C.3        1 MOL1        -0.1880
      14    H7      20.569328   20.294592   24.486824 H          1 MOL1         0.0742
      15    H8      19.071246   19.448142   24.158766 H          1 MOL1         0.0742
      16    C6      20.827335   18.155562   24.336826 C.3        1 MOL1        -0.1856
      17    H9      21.226965   18.288810   25.351636 H          1 MOL1         0.0742
      18    H10     21.692779   17.945861   23.693209 H          1 MOL1         0.0742
      19    C7      19.868394   16.944348   24.357288 C.3        1 MOL1        -0.2871
      20    H11     19.038205   17.115987   25.054721 H          1 MOL1         0.0754
      21    H12     20.398811   16.040313   24.683170 H          1 MOL1         0.0754
      22    H13     19.442200   16.743924   23.367797 H          1 MOL1         0.0754
@<TRIPOS>BOND
    1     1     2    1
    2     1     3    2
    3     1     4    1
    4     4     5    1
    5     4     6    1
    6     4     7    1
    7     7     8    1
    8     7     9    1
    9     7    10    1
   10    10    11    1
   11    10    12    1
   12    10    13    1
   13    13    14    1
   14    13    15    1
   15    13    16    1
   16    16    17    1
   17    16    18    1
   18    16    19    1
   19    19    20    1
   20    19    21    1
   21    19    22    1
@<TRIPOS>SUBSTRUCTURE
       1 MOL1            1 RESIDUE      1      MOL     
@<SCITEGIC>MOL_PROPERTY
VConf Rank
SciTegic.value.IntegerValue
599

@<SCITEGIC>MOL_PROPERTY
Conf_Id
SciTegic.value.IntegerValue
94

@<SCITEGIC>MOL_PROPERTY
Delta U+W
SciTegic.value.DoubleValue
3.471

@<SCITEGIC>MOL_PROPERTY
U+W
SciTegic.value.DoubleValue
-49.688

@<SCITEGIC>MOL_PROPERTY
Grad RMS
SciTegic.value.DoubleValue
0.000000

@<SCITEGIC>MOL_PROPERTY
U
SciTegic.value.DoubleValue
11.773

@<SCITEGIC>MOL_PROPERTY
W
SciTegic.value.DoubleValue
-61.461

@<SCITEGIC>MOL_PROPERTY
W(PB)
SciTegic.value.DoubleValue
-63.710

@<SCITEGIC>MOL_PROPERTY
W(SA)
SciTegic.value.DoubleValue
2.248

@<SCITEGIC>MOL_PROPERTY
Valence
SciTegic.value.DoubleValue
10.419

@<SCITEGIC>MOL_PROPERTY
Coulomb
SciTegic.value.DoubleValue
0.566

@<SCITEGIC>MOL_PROPERTY
VdW
SciTegic.value.DoubleValue
0.789

@<SCITEGIC>MOL_PROPERTY
VdW6
SciTegic.value.DoubleValue
-8.847

@<SCITEGIC>MOL_PROPERTY
VdW12
SciTegic.value.DoubleValue
9.636

@<SCITEGIC>MOL_PROPERTY
Bond
SciTegic.value.DoubleValue
0.200

@<SCITEGIC>MOL_PROPERTY
Angle
SciTegic.value.DoubleValue
3.187

@<SCITEGIC>MOL_PROPERTY
Pdih
SciTegic.value.DoubleValue
7.032

@<SCITEGIC>MOL_PROPERTY
Idih
SciTegic.value.DoubleValue
0.001

@<SCITEGIC>MOL_PROPERTY
Tether
SciTegic.value.DoubleValue
0.000

@<TRIPOS>MOLECULE
guest-s21_confgen4.mol2 : confsearch ligand conformer 600
          22          21           1
SMALL
USER_CHARGES
 
@<TRIPOS>ATOM
       1    C1      22.197402   18.566427   20.105311 C.2        1 MOL1         0.6145
       2    O1      22.591915   17.558918   19.552155 O.co2      1 MOL1        -0.6735
       3    O2      22.900098   19.533811   20.322017 O.co2      1 MOL1        -0.6735
       4    C2      20.746173   18.611172   20.569926 C.3        1 MOL1        -0.1985
       5    H1      20.144731   18.022312   19.867257 H          1 MOL1         0.0740
       6    H2      20.405134   19.650297   20.499596 H          1 MOL1         0.0740
       7    C3      20.561145   18.074385   22.012867 C.3        1 MOL1        -0.1882
       8    H3      20.986642   17.063087   22.070549 H          1 MOL1         0.0742
       9    H4      21.144060   18.689306   22.711371 H          1 MOL1         0.0742
      10    C4      19.080416   18.013725   22.464726 C.3        1 MOL1        -0.1880
      11    H5      19.033756   17.575915   23.470518 H          1 MOL1         0.0742
      12    H6      18.538982   17.315906   21.811700 H          1 MOL1         0.0742
      13    C5      18.333263   19.373478   22.463240 C.3        1 MOL1        -0.1880
      14    H7      18.236353   19.733947   21.430805 H          1 MOL1         0.0742
      15    H8      17.306512   19.208792   22.817083 H          1 MOL1         0.0742
      16    C6      18.984602   20.484244   23.323405 C.3        1 MOL1        -0.1856
      17    H9      18.386608   21.400416   23.223703 H          1 MOL1         0.0742
      18    H10     19.981844   20.728496   22.933722 H          1 MOL1         0.0742
      19    C7      19.085084   20.116849   24.819643 C.3        1 MOL1        -0.2871
      20    H11     18.100213   19.852878   25.226217 H          1 MOL1         0.0754
      21    H12     19.474424   20.964459   25.398189 H          1 MOL1         0.0754
      22    H13     19.761805   19.267548   24.976780 H          1 MOL1         0.0754
@<TRIPOS>BOND
    1     1     2    1
    2     1     3    2
    3     1     4    1
    4     4     5    1
    5     4     6    1
    6     4     7    1
    7     7     8    1
    8     7     9    1
    9     7    10    1
   10    10    11    1
   11    10    12    1
   12    10    13    1
   13    13    14    1
   14    13    15    1
   15    13    16    1
   16    16    17    1
   17    16    18    1
   18    16    19    1
   19    19    20    1
   20    19    21    1
   21    19    22    1
@<TRIPOS>SUBSTRUCTURE
       1 MOL1            1 RESIDUE      1      MOL     
@<SCITEGIC>MOL_PROPERTY
VConf Rank
SciTegic.value.IntegerValue
600

@<SCITEGIC>MOL_PROPERTY
Conf_Id
SciTegic.value.IntegerValue
56

@<SCITEGIC>MOL_PROPERTY
Delta U+W
SciTegic.value.DoubleValue
0.853

@<SCITEGIC>MOL_PROPERTY
U+W
SciTegic.value.DoubleValue
-52.307

@<SCITEGIC>MOL_PROPERTY
Grad RMS
SciTegic.value.DoubleValue
0.000000

@<SCITEGIC>MOL_PROPERTY
U
SciTegic.value.DoubleValue
8.874

@<SCITEGIC>MOL_PROPERTY
W
SciTegic.value.DoubleValue
-61.181

@<SCITEGIC>MOL_PROPERTY
W(PB)
SciTegic.value.DoubleValue
-63.413

@<SCITEGIC>MOL_PROPERTY
W(SA)
SciTegic.value.DoubleValue
2.232

@<SCITEGIC>MOL_PROPERTY
Valence
SciTegic.value.DoubleValue
8.479

@<SCITEGIC>MOL_PROPERTY
Coulomb
SciTegic.value.DoubleValue
-0.357

@<SCITEGIC>MOL_PROPERTY
VdW
SciTegic.value.DoubleValue
0.753

@<SCITEGIC>MOL_PROPERTY
VdW6
SciTegic.value.DoubleValue
-9.081

@<SCITEGIC>MOL_PROPERTY
VdW12
SciTegic.value.DoubleValue
9.833

@<SCITEGIC>MOL_PROPERTY
Bond
SciTegic.value.DoubleValue
0.221

@<SCITEGIC>MOL_PROPERTY
Angle
SciTegic.value.DoubleValue
3.208

@<SCITEGIC>MOL_PROPERTY
Pdih
SciTegic.value.DoubleValue
5.050

@<SCITEGIC>MOL_PROPERTY
Idih
SciTegic.value.DoubleValue
0.000

@<SCITEGIC>MOL_PROPERTY
Tether
SciTegic.value.DoubleValue
0.000

@<TRIPOS>MOLECULE
guest-s21_confgen4.mol2 : confsearch ligand conformer 601
          22          21           1
SMALL
USER_CHARGES
 
@<TRIPOS>ATOM
       1    C1      21.136707   15.846187   19.901947 C.2        1 MOL1         0.6145
       2    O1      20.782924   15.018243   20.719105 O.co2      1 MOL1        -0.6735
       3    O2      21.675137   15.554714   18.852634 O.co2      1 MOL1        -0.6735
       4    C2      20.907138   17.332743   20.179391 C.3        1 MOL1        -0.1985
       5    H1      20.307542   17.730926   19.352405 H          1 MOL1         0.0740
       6    H2      21.884084   17.828309   20.135145 H          1 MOL1         0.0740
       7    C3      20.216142   17.655507   21.530966 C.3        1 MOL1        -0.1882
       8    H3      19.240794   17.150970   21.571319 H          1 MOL1         0.0742
       9    H4      20.818846   17.248611   22.354782 H          1 MOL1         0.0742
      10    C4      20.023735   19.174786   21.729168 C.3        1 MOL1        -0.1880
      11    H5      19.420963   19.579276   20.904435 H          1 MOL1         0.0742
      12    H6      21.000074   19.677002   21.688297 H          1 MOL1         0.0742
      13    C5      19.336337   19.493623   23.074209 C.3        1 MOL1        -0.1880
      14    H7      18.359943   18.991556   23.115575 H          1 MOL1         0.0742
      15    H8      19.938787   19.089338   23.899276 H          1 MOL1         0.0742
      16    C6      19.143688   21.011683   23.272906 C.3        1 MOL1        -0.1856
      17    H9      18.539673   21.419332   22.450432 H          1 MOL1         0.0742
      18    H10     20.118616   21.517139   23.234092 H          1 MOL1         0.0742
      19    C7      18.457029   21.325863   24.617200 C.3        1 MOL1        -0.2871
      20    H11     17.465225   20.857999   24.670445 H          1 MOL1         0.0754
      21    H12     18.328000   22.408863   24.741920 H          1 MOL1         0.0754
      22    H13     19.056023   20.956605   25.459970 H          1 MOL1         0.0754
@<TRIPOS>BOND
    1     1     2    1
    2     1     3    2
    3     1     4    1
    4     4     5    1
    5     4     6    1
    6     4     7    1
    7     7     8    1
    8     7     9    1
    9     7    10    1
   10    10    11    1
   11    10    12    1
   12    10    13    1
   13    13    14    1
   14    13    15    1
   15    13    16    1
   16    16    17    1
   17    16    18    1
   18    16    19    1
   19    19    20    1
   20    19    21    1
   21    19    22    1
@<TRIPOS>SUBSTRUCTURE
       1 MOL1            1 RESIDUE      1      MOL     
@<SCITEGIC>MOL_PROPERTY
VConf Rank
SciTegic.value.IntegerValue
601

@<SCITEGIC>MOL_PROPERTY
Conf_Id
SciTegic.value.IntegerValue
0

@<SCITEGIC>MOL_PROPERTY
Delta U+W
SciTegic.value.DoubleValue
0.000

@<SCITEGIC>MOL_PROPERTY
U+W
SciTegic.value.DoubleValue
-53.159

@<SCITEGIC>MOL_PROPERTY
Grad RMS
SciTegic.value.DoubleValue
0.000000

@<SCITEGIC>MOL_PROPERTY
U
SciTegic.value.DoubleValue
6.763

@<SCITEGIC>MOL_PROPERTY
W
SciTegic.value.DoubleValue
-59.922

@<SCITEGIC>MOL_PROPERTY
W(PB)
SciTegic.value.DoubleValue
-62.256

@<SCITEGIC>MOL_PROPERTY
W(SA)
SciTegic.value.DoubleValue
2.334

@<SCITEGIC>MOL_PROPERTY
Valence
SciTegic.value.DoubleValue
7.600

@<SCITEGIC>MOL_PROPERTY
Coulomb
SciTegic.value.DoubleValue
-2.139

@<SCITEGIC>MOL_PROPERTY
VdW
SciTegic.value.DoubleValue
1.302

@<SCITEGIC>MOL_PROPERTY
VdW6
SciTegic.value.DoubleValue
-6.786

@<SCITEGIC>MOL_PROPERTY
VdW12
SciTegic.value.DoubleValue
8.088

@<SCITEGIC>MOL_PROPERTY
Bond
SciTegic.value.DoubleValue
0.134

@<SCITEGIC>MOL_PROPERTY
Angle
SciTegic.value.DoubleValue
2.720

@<SCITEGIC>MOL_PROPERTY
Pdih
SciTegic.value.DoubleValue
4.746

@<SCITEGIC>MOL_PROPERTY
Idih
SciTegic.value.DoubleValue
0.000

@<SCITEGIC>MOL_PROPERTY
Tether
SciTegic.value.DoubleValue
0.000

@<TRIPOS>MOLECULE
guest-s21_confgen4.mol2 : confsearch ligand conformer 602
          22          21           1
SMALL
USER_CHARGES
 
@<TRIPOS>ATOM
       1    C1      21.400505   18.496732   25.826152 C.2        1 MOL1         0.6145
       2    O1      22.147716   17.543473   25.923122 O.co2      1 MOL1        -0.6735
       3    O2      20.701658   18.899331   26.734974 O.co2      1 MOL1        -0.6735
       4    C2      21.318632   19.213567   24.483149 C.3        1 MOL1        -0.1985
       5    H1      22.304135   19.155946   24.005524 H          1 MOL1         0.0740
       6    H2      21.112657   20.273542   24.674695 H          1 MOL1         0.0740
       7    C3      20.236230   18.619066   23.548791 C.3        1 MOL1        -0.1882
       8    H3      20.449482   17.554752   23.377519 H          1 MOL1         0.0742
       9    H4      19.258040   18.672315   24.046669 H          1 MOL1         0.0742
      10    C4      20.173275   19.361607   22.196553 C.3        1 MOL1        -0.1880
      11    H5      21.152939   19.307524   21.702077 H          1 MOL1         0.0742
      12    H6      19.961231   20.425392   22.371401 H          1 MOL1         0.0742
      13    C5      19.093443   18.766841   21.267300 C.3        1 MOL1        -0.1880
      14    H7      19.305128   17.703046   21.092215 H          1 MOL1         0.0742
      15    H8      18.113615   18.820727   21.761425 H          1 MOL1         0.0742
      16    C6      19.029913   19.508434   19.915607 C.3        1 MOL1        -0.1856
      17    H9      20.007838   19.455001   19.417325 H          1 MOL1         0.0742
      18    H10     18.816337   20.572692   20.086532 H          1 MOL1         0.0742
      19    C7      17.950423   18.911525   18.990544 C.3        1 MOL1        -0.2871
      20    H11     16.956289   18.980667   19.451330 H          1 MOL1         0.0754
      21    H12     18.156704   17.854478   18.777218 H          1 MOL1         0.0754
      22    H13     17.919088   19.450323   18.034611 H          1 MOL1         0.0754
@<TRIPOS>BOND
    1     1     2    1
    2     1     3    2
    3     1     4    1
    4     4     5    1
    5     4     6    1
    6     4     7    1
    7     7     8    1
    8     7     9    1
    9     7    10    1
   10    10    11    1
   11    10    12    1
   12    10    13    1
   13    13    14    1
   14    13    15    1
   15    13    16    1
   16    16    17    1
   17    16    18    1
   18    16    19    1
   19    19    20    1
   20    19    21    1
   21    19    22    1
@<TRIPOS>SUBSTRUCTURE
       1 MOL1            1 RESIDUE      1      MOL     
@<SCITEGIC>MOL_PROPERTY
VConf Rank
SciTegic.value.IntegerValue
602

@<SCITEGIC>MOL_PROPERTY
Conf_Id
SciTegic.value.IntegerValue
10

@<SCITEGIC>MOL_PROPERTY
Delta U+W
SciTegic.value.DoubleValue
-1.291

@<SCITEGIC>MOL_PROPERTY
U+W
SciTegic.value.DoubleValue
-54.451

@<SCITEGIC>MOL_PROPERTY
Grad RMS
SciTegic.value.DoubleValue
0.000000

@<SCITEGIC>MOL_PROPERTY
U
SciTegic.value.DoubleValue
5.779

@<SCITEGIC>MOL_PROPERTY
W
SciTegic.value.DoubleValue
-60.230

@<SCITEGIC>MOL_PROPERTY
W(PB)
SciTegic.value.DoubleValue
-62.557

@<SCITEGIC>MOL_PROPERTY
W(SA)
SciTegic.value.DoubleValue
2.328

@<SCITEGIC>MOL_PROPERTY
Valence
SciTegic.value.DoubleValue
7.101

@<SCITEGIC>MOL_PROPERTY
Coulomb
SciTegic.value.DoubleValue
-2.079

@<SCITEGIC>MOL_PROPERTY
VdW
SciTegic.value.DoubleValue
0.757

@<SCITEGIC>MOL_PROPERTY
VdW6
SciTegic.value.DoubleValue
-6.496

@<SCITEGIC>MOL_PROPERTY
VdW12
SciTegic.value.DoubleValue
7.253

@<SCITEGIC>MOL_PROPERTY
Bond
SciTegic.value.DoubleValue
0.100

@<SCITEGIC>MOL_PROPERTY
Angle
SciTegic.value.DoubleValue
2.262

@<SCITEGIC>MOL_PROPERTY
Pdih
SciTegic.value.DoubleValue
4.738

@<SCITEGIC>MOL_PROPERTY
Idih
SciTegic.value.DoubleValue
0.001

@<SCITEGIC>MOL_PROPERTY
Tether
SciTegic.value.DoubleValue
0.000

@<TRIPOS>MOLECULE
guest-s21_confgen4.mol2 : confsearch ligand conformer 603
          22          21           1
SMALL
USER_CHARGES
 
@<TRIPOS>ATOM
       1    C1      21.524059   21.473113   24.666060 C.2        1 MOL1         0.6145
       2    O1      20.798974   21.761722   25.597408 O.co2      1 MOL1        -0.6735
       3    O2      22.737254   21.514970   24.719549 O.co2      1 MOL1        -0.6735
       4    C2      20.876234   21.012826   23.365034 C.3        1 MOL1        -0.1985
       5    H1      21.515609   21.333650   22.533821 H          1 MOL1         0.0740
       6    H2      19.918282   21.535775   23.257747 H          1 MOL1         0.0740
       7    C3      20.657769   19.480682   23.310645 C.3        1 MOL1        -0.1882
       8    H3      21.624170   18.972125   23.432916 H          1 MOL1         0.0742
       9    H4      20.026389   19.173802   24.156066 H          1 MOL1         0.0742
      10    C4      20.000952   19.040357   21.984353 C.3        1 MOL1        -0.1880
      11    H5      20.635224   19.346548   21.141263 H          1 MOL1         0.0742
      12    H6      19.040444   19.559269   21.868927 H          1 MOL1         0.0742
      13    C5      19.781662   17.510688   21.936551 C.3        1 MOL1        -0.1880
      14    H7      20.739465   17.006280   22.123953 H          1 MOL1         0.0742
      15    H8      19.106470   17.207860   22.748552 H          1 MOL1         0.0742
      16    C6      19.220641   17.011976   20.584571 C.3        1 MOL1        -0.1856
      17    H9      19.206628   15.913351   20.592572 H          1 MOL1         0.0742
      18    H10     19.896732   17.307628   19.770446 H          1 MOL1         0.0742
      19    C7      17.794780   17.524863   20.287798 C.3        1 MOL1        -0.2871
      20    H11     17.409041   17.073468   19.364560 H          1 MOL1         0.0754
      21    H12     17.779959   18.613947   20.155966 H          1 MOL1         0.0754
      22    H13     17.106684   17.266744   21.103294 H          1 MOL1         0.0754
@<TRIPOS>BOND
    1     1     2    1
    2     1     3    2
    3     1     4    1
    4     4     5    1
    5     4     6    1
    6     4     7    1
    7     7     8    1
    8     7     9    1
    9     7    10    1
   10    10    11    1
   11    10    12    1
   12    10    13    1
   13    13    14    1
   14    13    15    1
   15    13    16    1
   16    16    17    1
   17    16    18    1
   18    16    19    1
   19    19    20    1
   20    19    21    1
   21    19    22    1
@<TRIPOS>SUBSTRUCTURE
       1 MOL1            1 RESIDUE      1      MOL     
@<SCITEGIC>MOL_PROPERTY
VConf Rank
SciTegic.value.IntegerValue
603

@<SCITEGIC>MOL_PROPERTY
Conf_Id
SciTegic.value.IntegerValue
37

@<SCITEGIC>MOL_PROPERTY
Delta U+W
SciTegic.value.DoubleValue
-0.345

@<SCITEGIC>MOL_PROPERTY
U+W
SciTegic.value.DoubleValue
-53.504

@<SCITEGIC>MOL_PROPERTY
Grad RMS
SciTegic.value.DoubleValue
0.000000

@<SCITEGIC>MOL_PROPERTY
U
SciTegic.value.DoubleValue
6.751

@<SCITEGIC>MOL_PROPERTY
W
SciTegic.value.DoubleValue
-60.255

@<SCITEGIC>MOL_PROPERTY
W(PB)
SciTegic.value.DoubleValue
-62.592

@<SCITEGIC>MOL_PROPERTY
W(SA)
SciTegic.value.DoubleValue
2.336

@<SCITEGIC>MOL_PROPERTY
Valence
SciTegic.value.DoubleValue
7.602

@<SCITEGIC>MOL_PROPERTY
Coulomb
SciTegic.value.DoubleValue
-1.744

@<SCITEGIC>MOL_PROPERTY
VdW
SciTegic.value.DoubleValue
0.894

@<SCITEGIC>MOL_PROPERTY
VdW6
SciTegic.value.DoubleValue
-7.110

@<SCITEGIC>MOL_PROPERTY
VdW12
SciTegic.value.DoubleValue
8.004

@<SCITEGIC>MOL_PROPERTY
Bond
SciTegic.value.DoubleValue
0.131

@<SCITEGIC>MOL_PROPERTY
Angle
SciTegic.value.DoubleValue
2.489

@<SCITEGIC>MOL_PROPERTY
Pdih
SciTegic.value.DoubleValue
4.982

@<SCITEGIC>MOL_PROPERTY
Idih
SciTegic.value.DoubleValue
0.001

@<SCITEGIC>MOL_PROPERTY
Tether
SciTegic.value.DoubleValue
0.000

@<TRIPOS>MOLECULE
guest-s21_confgen4.mol2 : confsearch ligand conformer 604
          22          21           1
SMALL
USER_CHARGES
 
@<TRIPOS>ATOM
       1    C1      19.184329   22.832507   22.498856 C.2        1 MOL1         0.6145
       2    O1      20.217476   23.471068   22.534890 O.co2      1 MOL1        -0.6735
       3    O2      18.141843   23.210501   22.995648 O.co2      1 MOL1        -0.6735
       4    C2      19.202435   21.472032   21.811112 C.3        1 MOL1        -0.1985
       5    H1      19.925251   21.516161   20.987554 H          1 MOL1         0.0740
       6    H2      18.214488   21.301704   21.366596 H          1 MOL1         0.0740
       7    C3      19.561153   20.314803   22.775631 C.3        1 MOL1        -0.1882
       8    H3      20.547048   20.506347   23.221581 H          1 MOL1         0.0742
       9    H4      18.836227   20.293025   23.601174 H          1 MOL1         0.0742
      10    C4      19.572598   18.948880   22.055581 C.3        1 MOL1        -0.1880
      11    H5      20.294163   18.984002   21.228975 H          1 MOL1         0.0742
      12    H6      18.585302   18.759118   21.612759 H          1 MOL1         0.0742
      13    C5      19.934987   17.797613   23.021771 C.3        1 MOL1        -0.1880
      14    H7      20.943201   17.958254   23.427525 H          1 MOL1         0.0742
      15    H8      19.247604   17.820232   23.878467 H          1 MOL1         0.0742
      16    C6      19.857863   16.398585   22.367489 C.3        1 MOL1        -0.1856
      17    H9      18.848740   16.231697   21.966081 H          1 MOL1         0.0742
      18    H10     20.012444   15.637205   23.144432 H          1 MOL1         0.0742
      19    C7      20.902718   16.187679   21.250347 C.3        1 MOL1        -0.2871
      20    H11     21.918248   16.378560   21.621018 H          1 MOL1         0.0754
      21    H12     20.716706   16.851763   20.397061 H          1 MOL1         0.0754
      22    H13     20.866403   15.154613   20.881055 H          1 MOL1         0.0754
@<TRIPOS>BOND
    1     1     2    1
    2     1     3    2
    3     1     4    1
    4     4     5    1
    5     4     6    1
    6     4     7    1
    7     7     8    1
    8     7     9    1
    9     7    10    1
   10    10    11    1
   11    10    12    1
   12    10    13    1
   13    13    14    1
   14    13    15    1
   15    13    16    1
   16    16    17    1
   17    16    18    1
   18    16    19    1
   19    19    20    1
   20    19    21    1
   21    19    22    1
@<TRIPOS>SUBSTRUCTURE
       1 MOL1            1 RESIDUE      1      MOL     
@<SCITEGIC>MOL_PROPERTY
VConf Rank
SciTegic.value.IntegerValue
604

@<SCITEGIC>MOL_PROPERTY
Conf_Id
SciTegic.value.IntegerValue
38

@<SCITEGIC>MOL_PROPERTY
Delta U+W
SciTegic.value.DoubleValue
-0.439

@<SCITEGIC>MOL_PROPERTY
U+W
SciTegic.value.DoubleValue
-53.598

@<SCITEGIC>MOL_PROPERTY
Grad RMS
SciTegic.value.DoubleValue
0.000000

@<SCITEGIC>MOL_PROPERTY
U
SciTegic.value.DoubleValue
6.751

@<SCITEGIC>MOL_PROPERTY
W
SciTegic.value.DoubleValue
-60.350

@<SCITEGIC>MOL_PROPERTY
W(PB)
SciTegic.value.DoubleValue
-62.659

@<SCITEGIC>MOL_PROPERTY
W(SA)
SciTegic.value.DoubleValue
2.309

@<SCITEGIC>MOL_PROPERTY
Valence
SciTegic.value.DoubleValue
7.602

@<SCITEGIC>MOL_PROPERTY
Coulomb
SciTegic.value.DoubleValue
-1.744

@<SCITEGIC>MOL_PROPERTY
VdW
SciTegic.value.DoubleValue
0.893

@<SCITEGIC>MOL_PROPERTY
VdW6
SciTegic.value.DoubleValue
-7.110

@<SCITEGIC>MOL_PROPERTY
VdW12
SciTegic.value.DoubleValue
8.004

@<SCITEGIC>MOL_PROPERTY
Bond
SciTegic.value.DoubleValue
0.131

@<SCITEGIC>MOL_PROPERTY
Angle
SciTegic.value.DoubleValue
2.489

@<SCITEGIC>MOL_PROPERTY
Pdih
SciTegic.value.DoubleValue
4.981

@<SCITEGIC>MOL_PROPERTY
Idih
SciTegic.value.DoubleValue
0.001

@<SCITEGIC>MOL_PROPERTY
Tether
SciTegic.value.DoubleValue
0.000

@<TRIPOS>MOLECULE
guest-s21_confgen4.mol2 : confsearch ligand conformer 605
          22          21           1
SMALL
USER_CHARGES
 
@<TRIPOS>ATOM
       1    C1      23.000434   18.086785   24.111359 C.2        1 MOL1         0.6145
       2    O1      23.569545   17.020392   23.986941 O.co2      1 MOL1        -0.6735
       3    O2      23.136273   18.813260   25.075887 O.co2      1 MOL1        -0.6735
       4    C2      22.046087   18.526738   23.006844 C.3        1 MOL1        -0.1985
       5    H1      22.424334   18.135390   22.054902 H          1 MOL1         0.0740
       6    H2      22.086554   19.620095   22.948593 H          1 MOL1         0.0740
       7    C3      20.591438   18.043561   23.243796 C.3        1 MOL1        -0.1882
       8    H3      20.603384   16.955160   23.394424 H          1 MOL1         0.0742
       9    H4      20.205884   18.480843   24.175154 H          1 MOL1         0.0742
      10    C4      19.630554   18.369975   22.075518 C.3        1 MOL1        -0.1880
      11    H5      18.674541   17.868297   22.272209 H          1 MOL1         0.0742
      12    H6      20.023180   17.938641   21.144678 H          1 MOL1         0.0742
      13    C5      19.385493   19.887227   21.886009 C.3        1 MOL1        -0.1880
      14    H7      18.994556   20.318753   22.817489 H          1 MOL1         0.0742
      15    H8      20.340291   20.389745   21.686221 H          1 MOL1         0.0742
      16    C6      18.421625   20.212747   20.721057 C.3        1 MOL1        -0.1856
      17    H9      18.803348   19.772896   19.789332 H          1 MOL1         0.0742
      18    H10     18.410309   21.300745   20.568158 H          1 MOL1         0.0742
      19    C7      16.974755   19.733182   20.968517 C.3        1 MOL1        -0.2871
      20    H11     16.915253   18.638460   21.006822 H          1 MOL1         0.0754
      21    H12     16.314840   20.072645   20.159694 H          1 MOL1         0.0754
      22    H13     16.584282   20.133298   21.913272 H          1 MOL1         0.0754
@<TRIPOS>BOND
    1     1     2    1
    2     1     3    2
    3     1     4    1
    4     4     5    1
    5     4     6    1
    6     4     7    1
    7     7     8    1
    8     7     9    1
    9     7    10    1
   10    10    11    1
   11    10    12    1
   12    10    13    1
   13    13    14    1
   14    13    15    1
   15    13    16    1
   16    16    17    1
   17    16    18    1
   18    16    19    1
   19    19    20    1
   20    19    21    1
   21    19    22    1
@<TRIPOS>SUBSTRUCTURE
       1 MOL1            1 RESIDUE      1      MOL     
@<SCITEGIC>MOL_PROPERTY
VConf Rank
SciTegic.value.IntegerValue
605

@<SCITEGIC>MOL_PROPERTY
Conf_Id
SciTegic.value.IntegerValue
60

@<SCITEGIC>MOL_PROPERTY
Delta U+W
SciTegic.value.DoubleValue
0.386

@<SCITEGIC>MOL_PROPERTY
U+W
SciTegic.value.DoubleValue
-52.773

@<SCITEGIC>MOL_PROPERTY
Grad RMS
SciTegic.value.DoubleValue
0.000000

@<SCITEGIC>MOL_PROPERTY
U
SciTegic.value.DoubleValue
7.689

@<SCITEGIC>MOL_PROPERTY
W
SciTegic.value.DoubleValue
-60.463

@<SCITEGIC>MOL_PROPERTY
W(PB)
SciTegic.value.DoubleValue
-62.772

@<SCITEGIC>MOL_PROPERTY
W(SA)
SciTegic.value.DoubleValue
2.309

@<SCITEGIC>MOL_PROPERTY
Valence
SciTegic.value.DoubleValue
8.197

@<SCITEGIC>MOL_PROPERTY
Coulomb
SciTegic.value.DoubleValue
-1.561

@<SCITEGIC>MOL_PROPERTY
VdW
SciTegic.value.DoubleValue
1.053

@<SCITEGIC>MOL_PROPERTY
VdW6
SciTegic.value.DoubleValue
-7.737

@<SCITEGIC>MOL_PROPERTY
VdW12
SciTegic.value.DoubleValue
8.790

@<SCITEGIC>MOL_PROPERTY
Bond
SciTegic.value.DoubleValue
0.181

@<SCITEGIC>MOL_PROPERTY
Angle
SciTegic.value.DoubleValue
2.780

@<SCITEGIC>MOL_PROPERTY
Pdih
SciTegic.value.DoubleValue
5.235

@<SCITEGIC>MOL_PROPERTY
Idih
SciTegic.value.DoubleValue
0.001

@<SCITEGIC>MOL_PROPERTY
Tether
SciTegic.value.DoubleValue
0.000

@<TRIPOS>MOLECULE
guest-s21_confgen4.mol2 : confsearch ligand conformer 606
          22          21           1
SMALL
USER_CHARGES
 
@<TRIPOS>ATOM
       1    C1      17.194394   19.087559   24.902429 C.2        1 MOL1         0.6145
       2    O1      17.566880   19.791926   25.819846 O.co2      1 MOL1        -0.6735
       3    O2      16.288112   18.283609   24.996657 O.co2      1 MOL1        -0.6735
       4    C2      17.918758   19.202559   23.565881 C.3        1 MOL1        -0.1985
       5    H1      18.234927   20.244937   23.447775 H          1 MOL1         0.0740
       6    H2      17.197049   18.988517   22.768551 H          1 MOL1         0.0740
       7    C3      19.134285   18.245182   23.458464 C.3        1 MOL1        -0.1882
       8    H3      19.872757   18.500469   24.230981 H          1 MOL1         0.0742
       9    H4      18.796415   17.223048   23.678765 H          1 MOL1         0.0742
      10    C4      19.809678   18.252792   22.066161 C.3        1 MOL1        -0.1880
      11    H5      19.066989   18.005288   21.295561 H          1 MOL1         0.0742
      12    H6      20.557378   17.449724   22.047354 H          1 MOL1         0.0742
      13    C5      20.492468   19.599117   21.720872 C.3        1 MOL1        -0.1880
      14    H7      19.745309   20.402607   21.736219 H          1 MOL1         0.0742
      15    H8      21.233786   19.847429   22.492553 H          1 MOL1         0.0742
      16    C6      21.171238   19.604729   20.331142 C.3        1 MOL1        -0.1856
      17    H9      21.507612   20.626795   20.108700 H          1 MOL1         0.0742
      18    H10     20.435398   19.345449   19.557445 H          1 MOL1         0.0742
      19    C7      22.383892   18.653390   20.235863 C.3        1 MOL1        -0.2871
      20    H11     23.117685   18.872051   21.022540 H          1 MOL1         0.0754
      21    H12     22.884897   18.767022   19.265811 H          1 MOL1         0.0754
      22    H13     22.079546   17.603682   20.330267 H          1 MOL1         0.0754
@<TRIPOS>BOND
    1     1     2    1
    2     1     3    2
    3     1     4    1
    4     4     5    1
    5     4     6    1
    6     4     7    1
    7     7     8    1
    8     7     9    1
    9     7    10    1
   10    10    11    1
   11    10    12    1
   12    10    13    1
   13    13    14    1
   14    13    15    1
   15    13    16    1
   16    16    17    1
   17    16    18    1
   18    16    19    1
   19    19    20    1
   20    19    21    1
   21    19    22    1
@<TRIPOS>SUBSTRUCTURE
       1 MOL1            1 RESIDUE      1      MOL     
@<SCITEGIC>MOL_PROPERTY
VConf Rank
SciTegic.value.IntegerValue
606

@<SCITEGIC>MOL_PROPERTY
Conf_Id
SciTegic.value.IntegerValue
28

@<SCITEGIC>MOL_PROPERTY
Delta U+W
SciTegic.value.DoubleValue
0.351

@<SCITEGIC>MOL_PROPERTY
U+W
SciTegic.value.DoubleValue
-52.808

@<SCITEGIC>MOL_PROPERTY
Grad RMS
SciTegic.value.DoubleValue
0.000000

@<SCITEGIC>MOL_PROPERTY
U
SciTegic.value.DoubleValue
7.689

@<SCITEGIC>MOL_PROPERTY
W
SciTegic.value.DoubleValue
-60.498

@<SCITEGIC>MOL_PROPERTY
W(PB)
SciTegic.value.DoubleValue
-62.768

@<SCITEGIC>MOL_PROPERTY
W(SA)
SciTegic.value.DoubleValue
2.270

@<SCITEGIC>MOL_PROPERTY
Valence
SciTegic.value.DoubleValue
8.197

@<SCITEGIC>MOL_PROPERTY
Coulomb
SciTegic.value.DoubleValue
-1.561

@<SCITEGIC>MOL_PROPERTY
VdW
SciTegic.value.DoubleValue
1.053

@<SCITEGIC>MOL_PROPERTY
VdW6
SciTegic.value.DoubleValue
-7.737

@<SCITEGIC>MOL_PROPERTY
VdW12
SciTegic.value.DoubleValue
8.791

@<SCITEGIC>MOL_PROPERTY
Bond
SciTegic.value.DoubleValue
0.181

@<SCITEGIC>MOL_PROPERTY
Angle
SciTegic.value.DoubleValue
2.780

@<SCITEGIC>MOL_PROPERTY
Pdih
SciTegic.value.DoubleValue
5.235

@<SCITEGIC>MOL_PROPERTY
Idih
SciTegic.value.DoubleValue
0.001

@<SCITEGIC>MOL_PROPERTY
Tether
SciTegic.value.DoubleValue
0.000

@<TRIPOS>MOLECULE
guest-s21_confgen4.mol2 : confsearch ligand conformer 607
          22          21           1
SMALL
USER_CHARGES
 
@<TRIPOS>ATOM
       1    C1      21.304340   22.305250   22.871566 C.2        1 MOL1         0.6145
       2    O1      22.483802   22.375349   23.155163 O.co2      1 MOL1        -0.6735
       3    O2      20.749786   23.068332   22.105648 O.co2      1 MOL1        -0.6735
       4    C2      20.479059   21.185705   23.495947 C.3        1 MOL1        -0.1985
       5    H1      19.453758   21.551465   23.628716 H          1 MOL1         0.0740
       6    H2      20.882633   20.981748   24.495019 H          1 MOL1         0.0740
       7    C3      20.478408   19.892125   22.644515 C.3        1 MOL1        -0.1882
       8    H3      20.089785   20.126043   21.644653 H          1 MOL1         0.0742
       9    H4      21.512225   19.543827   22.513309 H          1 MOL1         0.0742
      10    C4      19.630848   18.776092   23.298100 C.3        1 MOL1        -0.1880
      11    H5      18.585773   19.104595   23.381118 H          1 MOL1         0.0742
      12    H6      19.987449   18.611715   24.324150 H          1 MOL1         0.0742
      13    C5      19.691646   17.430405   22.537186 C.3        1 MOL1        -0.1880
      14    H7      20.736198   17.099511   22.457490 H          1 MOL1         0.0742
      15    H8      19.169671   16.669597   23.133542 H          1 MOL1         0.0742
      16    C6      19.054738   17.488290   21.130313 C.3        1 MOL1        -0.1856
      17    H9      19.610800   18.186914   20.491503 H          1 MOL1         0.0742
      18    H10     18.026887   17.869446   21.204132 H          1 MOL1         0.0742
      19    C7      19.038988   16.100002   20.459403 C.3        1 MOL1        -0.2871
      20    H11     18.457200   15.382789   21.053107 H          1 MOL1         0.0754
      21    H12     20.057859   15.706454   20.348019 H          1 MOL1         0.0754
      22    H13     18.587042   16.158238   19.460692 H          1 MOL1         0.0754
@<TRIPOS>BOND
    1     1     2    1
    2     1     3    2
    3     1     4    1
    4     4     5    1
    5     4     6    1
    6     4     7    1
    7     7     8    1
    8     7     9    1
    9     7    10    1
   10    10    11    1
   11    10    12    1
   12    10    13    1
   13    13    14    1
   14    13    15    1
   15    13    16    1
   16    16    17    1
   17    16    18    1
   18    16    19    1
   19    19    20    1
   20    19    21    1
   21    19    22    1
@<TRIPOS>SUBSTRUCTURE
       1 MOL1            1 RESIDUE      1      MOL     
@<SCITEGIC>MOL_PROPERTY
VConf Rank
SciTegic.value.IntegerValue
607

@<SCITEGIC>MOL_PROPERTY
Conf_Id
SciTegic.value.IntegerValue
50

@<SCITEGIC>MOL_PROPERTY
Delta U+W
SciTegic.value.DoubleValue
-0.486

@<SCITEGIC>MOL_PROPERTY
U+W
SciTegic.value.DoubleValue
-53.646

@<SCITEGIC>MOL_PROPERTY
Grad RMS
SciTegic.value.DoubleValue
0.000000

@<SCITEGIC>MOL_PROPERTY
U
SciTegic.value.DoubleValue
7.026

@<SCITEGIC>MOL_PROPERTY
W
SciTegic.value.DoubleValue
-60.672

@<SCITEGIC>MOL_PROPERTY
W(PB)
SciTegic.value.DoubleValue
-62.964

@<SCITEGIC>MOL_PROPERTY
W(SA)
SciTegic.value.DoubleValue
2.292

@<SCITEGIC>MOL_PROPERTY
Valence
SciTegic.value.DoubleValue
7.637

@<SCITEGIC>MOL_PROPERTY
Coulomb
SciTegic.value.DoubleValue
-1.488

@<SCITEGIC>MOL_PROPERTY
VdW
SciTegic.value.DoubleValue
0.877

@<SCITEGIC>MOL_PROPERTY
VdW6
SciTegic.value.DoubleValue
-7.165

@<SCITEGIC>MOL_PROPERTY
VdW12
SciTegic.value.DoubleValue
8.043

@<SCITEGIC>MOL_PROPERTY
Bond
SciTegic.value.DoubleValue
0.134

@<SCITEGIC>MOL_PROPERTY
Angle
SciTegic.value.DoubleValue
2.513

@<SCITEGIC>MOL_PROPERTY
Pdih
SciTegic.value.DoubleValue
4.990

@<SCITEGIC>MOL_PROPERTY
Idih
SciTegic.value.DoubleValue
0.001

@<SCITEGIC>MOL_PROPERTY
Tether
SciTegic.value.DoubleValue
0.000

@<TRIPOS>MOLECULE
guest-s21_confgen4.mol2 : confsearch ligand conformer 608
          22          21           1
SMALL
USER_CHARGES
 
@<TRIPOS>ATOM
       1    C1      22.550426   16.579708   21.910351 C.2        1 MOL1         0.6145
       2    O1      22.801051   15.887968   22.877385 O.co2      1 MOL1        -0.6735
       3    O2      23.401384   17.098553   21.215279 O.co2      1 MOL1        -0.6735
       4    C2      21.086946   16.827046   21.561956 C.3        1 MOL1        -0.1985
       5    H1      20.514736   15.934455   21.842083 H          1 MOL1         0.0740
       6    H2      21.009135   16.933804   20.473289 H          1 MOL1         0.0740
       7    C3      20.504554   18.078475   22.264128 C.3        1 MOL1        -0.1882
       8    H3      20.598085   17.960087   23.352493 H          1 MOL1         0.0742
       9    H4      21.105338   18.953800   21.984248 H          1 MOL1         0.0742
      10    C4      19.021882   18.307879   21.889792 C.3        1 MOL1        -0.1880
      11    H5      18.453378   17.393203   22.106895 H          1 MOL1         0.0742
      12    H6      18.934677   18.478661   20.808027 H          1 MOL1         0.0742
      13    C5      18.368121   19.483598   22.653887 C.3        1 MOL1        -0.1880
      14    H7      17.294061   19.494120   22.423210 H          1 MOL1         0.0742
      15    H8      18.451593   19.311291   23.735679 H          1 MOL1         0.0742
      16    C6      18.970707   20.861416   22.297801 C.3        1 MOL1        -0.1856
      17    H9      18.935340   21.011505   21.209946 H          1 MOL1         0.0742
      18    H10     20.027536   20.900023   22.592728 H          1 MOL1         0.0742
      19    C7      18.213030   22.007660   22.997636 C.3        1 MOL1        -0.2871
      20    H11     18.255728   21.897316   24.089142 H          1 MOL1         0.0754
      21    H12     17.157662   22.023687   22.695479 H          1 MOL1         0.0754
      22    H13     18.654496   22.978503   22.737559 H          1 MOL1         0.0754
@<TRIPOS>BOND
    1     1     2    1
    2     1     3    2
    3     1     4    1
    4     4     5    1
    5     4     6    1
    6     4     7    1
    7     7     8    1
    8     7     9    1
    9     7    10    1
   10    10    11    1
   11    10    12    1
   12    10    13    1
   13    13    14    1
   14    13    15    1
   15    13    16    1
   16    16    17    1
   17    16    18    1
   18    16    19    1
   19    19    20    1
   20    19    21    1
   21    19    22    1
@<TRIPOS>SUBSTRUCTURE
       1 MOL1            1 RESIDUE      1      MOL     
@<SCITEGIC>MOL_PROPERTY
VConf Rank
SciTegic.value.IntegerValue
608

@<SCITEGIC>MOL_PROPERTY
Conf_Id
SciTegic.value.IntegerValue
51

@<SCITEGIC>MOL_PROPERTY
Delta U+W
SciTegic.value.DoubleValue
-0.517

@<SCITEGIC>MOL_PROPERTY
U+W
SciTegic.value.DoubleValue
-53.677

@<SCITEGIC>MOL_PROPERTY
Grad RMS
SciTegic.value.DoubleValue
0.000000

@<SCITEGIC>MOL_PROPERTY
U
SciTegic.value.DoubleValue
7.026

@<SCITEGIC>MOL_PROPERTY
W
SciTegic.value.DoubleValue
-60.703

@<SCITEGIC>MOL_PROPERTY
W(PB)
SciTegic.value.DoubleValue
-63.007

@<SCITEGIC>MOL_PROPERTY
W(SA)
SciTegic.value.DoubleValue
2.304

@<SCITEGIC>MOL_PROPERTY
Valence
SciTegic.value.DoubleValue
7.638

@<SCITEGIC>MOL_PROPERTY
Coulomb
SciTegic.value.DoubleValue
-1.488

@<SCITEGIC>MOL_PROPERTY
VdW
SciTegic.value.DoubleValue
0.877

@<SCITEGIC>MOL_PROPERTY
VdW6
SciTegic.value.DoubleValue
-7.165

@<SCITEGIC>MOL_PROPERTY
VdW12
SciTegic.value.DoubleValue
8.042

@<SCITEGIC>MOL_PROPERTY
Bond
SciTegic.value.DoubleValue
0.134

@<SCITEGIC>MOL_PROPERTY
Angle
SciTegic.value.DoubleValue
2.513

@<SCITEGIC>MOL_PROPERTY
Pdih
SciTegic.value.DoubleValue
4.990

@<SCITEGIC>MOL_PROPERTY
Idih
SciTegic.value.DoubleValue
0.001

@<SCITEGIC>MOL_PROPERTY
Tether
SciTegic.value.DoubleValue
0.000

@<TRIPOS>MOLECULE
guest-s21_confgen4.mol2 : confsearch ligand conformer 609
          22          21           1
SMALL
USER_CHARGES
 
@<TRIPOS>ATOM
       1    C1      21.544765   16.184080   23.891777 C.2        1 MOL1         0.6145
       2    O1      22.747645   16.326199   23.990680 O.co2      1 MOL1        -0.6735
       3    O2      20.801221   16.064347   24.845506 O.co2      1 MOL1        -0.6735
       4    C2      20.939379   16.134585   22.491708 C.3        1 MOL1        -0.1985
       5    H1      19.947845   15.670101   22.555107 H          1 MOL1         0.0740
       6    H2      21.564635   15.466715   21.887517 H          1 MOL1         0.0740
       7    C3      20.839265   17.518219   21.798507 C.3        1 MOL1        -0.1882
       8    H3      21.834710   17.982761   21.767795 H          1 MOL1         0.0742
       9    H4      20.526023   17.372624   20.755807 H          1 MOL1         0.0742
      10    C4      19.841450   18.464834   22.502689 C.3        1 MOL1        -0.1880
      11    H5      20.157720   18.629142   23.542105 H          1 MOL1         0.0742
      12    H6      18.851291   17.990475   22.542486 H          1 MOL1         0.0742
      13    C5      19.734231   19.823944   21.778275 C.3        1 MOL1        -0.1880
      14    H7      20.724754   20.297677   21.738918 H          1 MOL1         0.0742
      15    H8      19.415308   19.662518   20.739387 H          1 MOL1         0.0742
      16    C6      18.738515   20.770112   22.481384 C.3        1 MOL1        -0.1856
      17    H9      19.055355   20.935363   23.520522 H          1 MOL1         0.0742
      18    H10     17.745997   20.300230   22.521153 H          1 MOL1         0.0742
      19    C7      18.634575   22.126482   21.755566 C.3        1 MOL1        -0.2871
      20    H11     19.608128   22.633323   21.728986 H          1 MOL1         0.0754
      21    H12     17.922891   22.786277   22.268657 H          1 MOL1         0.0754
      22    H13     18.288930   21.993418   20.722020 H          1 MOL1         0.0754
@<TRIPOS>BOND
    1     1     2    1
    2     1     3    2
    3     1     4    1
    4     4     5    1
    5     4     6    1
    6     4     7    1
    7     7     8    1
    8     7     9    1
    9     7    10    1
   10    10    11    1
   11    10    12    1
   12    10    13    1
   13    13    14    1
   14    13    15    1
   15    13    16    1
   16    16    17    1
   17    16    18    1
   18    16    19    1
   19    19    20    1
   20    19    21    1
   21    19    22    1
@<TRIPOS>SUBSTRUCTURE
       1 MOL1            1 RESIDUE      1      MOL     
@<SCITEGIC>MOL_PROPERTY
VConf Rank
SciTegic.value.IntegerValue
609

@<SCITEGIC>MOL_PROPERTY
Conf_Id
SciTegic.value.IntegerValue
43

@<SCITEGIC>MOL_PROPERTY
Delta U+W
SciTegic.value.DoubleValue
-0.129

@<SCITEGIC>MOL_PROPERTY
U+W
SciTegic.value.DoubleValue
-53.289

@<SCITEGIC>MOL_PROPERTY
Grad RMS
SciTegic.value.DoubleValue
0.000000

@<SCITEGIC>MOL_PROPERTY
U
SciTegic.value.DoubleValue
7.937

@<SCITEGIC>MOL_PROPERTY
W
SciTegic.value.DoubleValue
-61.225

@<SCITEGIC>MOL_PROPERTY
W(PB)
SciTegic.value.DoubleValue
-63.523

@<SCITEGIC>MOL_PROPERTY
W(SA)
SciTegic.value.DoubleValue
2.297

@<SCITEGIC>MOL_PROPERTY
Valence
SciTegic.value.DoubleValue
7.358

@<SCITEGIC>MOL_PROPERTY
Coulomb
SciTegic.value.DoubleValue
-0.022

@<SCITEGIC>MOL_PROPERTY
VdW
SciTegic.value.DoubleValue
0.601

@<SCITEGIC>MOL_PROPERTY
VdW6
SciTegic.value.DoubleValue
-7.363

@<SCITEGIC>MOL_PROPERTY
VdW12
SciTegic.value.DoubleValue
7.964

@<SCITEGIC>MOL_PROPERTY
Bond
SciTegic.value.DoubleValue
0.121

@<SCITEGIC>MOL_PROPERTY
Angle
SciTegic.value.DoubleValue
2.425

@<SCITEGIC>MOL_PROPERTY
Pdih
SciTegic.value.DoubleValue
4.811

@<SCITEGIC>MOL_PROPERTY
Idih
SciTegic.value.DoubleValue
0.000

@<SCITEGIC>MOL_PROPERTY
Tether
SciTegic.value.DoubleValue
0.000

@<TRIPOS>MOLECULE
guest-s21_confgen4.mol2 : confsearch ligand conformer 610
          22          21           1
SMALL
USER_CHARGES
 
@<TRIPOS>ATOM
       1    C1      20.819957   21.562434   20.204759 C.2        1 MOL1         0.6145
       2    O1      20.192694   22.598428   20.305556 O.co2      1 MOL1        -0.6735
       3    O2      20.875013   20.906457   19.183262 O.co2      1 MOL1        -0.6735
       4    C2      21.595091   21.069806   21.423616 C.3        1 MOL1        -0.1985
       5    H1      22.131084   21.930299   21.841114 H          1 MOL1         0.0740
       6    H2      22.355659   20.353894   21.089087 H          1 MOL1         0.0740
       7    C3      20.705010   20.431608   22.521550 C.3        1 MOL1        -0.1882
       8    H3      21.320704   20.234713   23.409635 H          1 MOL1         0.0742
       9    H4      19.931311   21.150168   22.826040 H          1 MOL1         0.0742
      10    C4      20.042909   19.114478   22.058537 C.3        1 MOL1        -0.1880
      11    H5      20.819653   18.404495   21.742930 H          1 MOL1         0.0742
      12    H6      19.411317   19.306563   21.180129 H          1 MOL1         0.0742
      13    C5      19.187478   18.480735   23.176600 C.3        1 MOL1        -0.1880
      14    H7      19.817473   18.285045   24.055162 H          1 MOL1         0.0742
      15    H8      18.410960   19.191292   23.491621 H          1 MOL1         0.0742
      16    C6      18.525323   17.165728   22.714696 C.3        1 MOL1        -0.1856
      17    H9      19.299206   16.451768   22.400324 H          1 MOL1         0.0742
      18    H10     17.892798   17.357947   21.836933 H          1 MOL1         0.0742
      19    C7      17.671441   16.536123   23.833553 C.3        1 MOL1        -0.2871
      20    H11     18.285946   16.304286   24.713344 H          1 MOL1         0.0754
      21    H12     17.208418   15.602681   23.488039 H          1 MOL1         0.0754
      22    H13     16.868941   17.217289   24.145655 H          1 MOL1         0.0754
@<TRIPOS>BOND
    1     1     2    1
    2     1     3    2
    3     1     4    1
    4     4     5    1
    5     4     6    1
    6     4     7    1
    7     7     8    1
    8     7     9    1
    9     7    10    1
   10    10    11    1
   11    10    12    1
   12    10    13    1
   13    13    14    1
   14    13    15    1
   15    13    16    1
   16    16    17    1
   17    16    18    1
   18    16    19    1
   19    19    20    1
   20    19    21    1
   21    19    22    1
@<TRIPOS>SUBSTRUCTURE
       1 MOL1            1 RESIDUE      1      MOL     
@<SCITEGIC>MOL_PROPERTY
VConf Rank
SciTegic.value.IntegerValue
610

@<SCITEGIC>MOL_PROPERTY
Conf_Id
SciTegic.value.IntegerValue
44

@<SCITEGIC>MOL_PROPERTY
Delta U+W
SciTegic.value.DoubleValue
-0.155

@<SCITEGIC>MOL_PROPERTY
U+W
SciTegic.value.DoubleValue
-53.314

@<SCITEGIC>MOL_PROPERTY
Grad RMS
SciTegic.value.DoubleValue
0.000000

@<SCITEGIC>MOL_PROPERTY
U
SciTegic.value.DoubleValue
7.937

@<SCITEGIC>MOL_PROPERTY
W
SciTegic.value.DoubleValue
-61.252

@<SCITEGIC>MOL_PROPERTY
W(PB)
SciTegic.value.DoubleValue
-63.556

@<SCITEGIC>MOL_PROPERTY
W(SA)
SciTegic.value.DoubleValue
2.304

@<SCITEGIC>MOL_PROPERTY
Valence
SciTegic.value.DoubleValue
7.358

@<SCITEGIC>MOL_PROPERTY
Coulomb
SciTegic.value.DoubleValue
-0.021

@<SCITEGIC>MOL_PROPERTY
VdW
SciTegic.value.DoubleValue
0.600

@<SCITEGIC>MOL_PROPERTY
VdW6
SciTegic.value.DoubleValue
-7.363

@<SCITEGIC>MOL_PROPERTY
VdW12
SciTegic.value.DoubleValue
7.964

@<SCITEGIC>MOL_PROPERTY
Bond
SciTegic.value.DoubleValue
0.121

@<SCITEGIC>MOL_PROPERTY
Angle
SciTegic.value.DoubleValue
2.425

@<SCITEGIC>MOL_PROPERTY
Pdih
SciTegic.value.DoubleValue
4.811

@<SCITEGIC>MOL_PROPERTY
Idih
SciTegic.value.DoubleValue
0.001

@<SCITEGIC>MOL_PROPERTY
Tether
SciTegic.value.DoubleValue
0.000

@<TRIPOS>MOLECULE
guest-s21_confgen4.mol2 : confsearch ligand conformer 611
          22          21           1
SMALL
USER_CHARGES
 
@<TRIPOS>ATOM
       1    C1      20.509794   15.694324   21.392977 C.2        1 MOL1         0.6145
       2    O1      21.625141   15.378354   21.757790 O.co2      1 MOL1        -0.6735
       3    O2      20.099133   15.524176   20.261927 O.co2      1 MOL1        -0.6735
       4    C2      19.568583   16.321350   22.417804 C.3        1 MOL1        -0.1985
       5    H1      19.633541   15.720018   23.332250 H          1 MOL1         0.0740
       6    H2      18.539203   16.230121   22.050457 H          1 MOL1         0.0740
       7    C3      19.889554   17.802271   22.748677 C.3        1 MOL1        -0.1882
       8    H3      19.266125   18.111568   23.597109 H          1 MOL1         0.0742
       9    H4      20.935189   17.883395   23.076501 H          1 MOL1         0.0742
      10    C4      19.641374   18.746291   21.547659 C.3        1 MOL1        -0.1880
      11    H5      18.585664   18.695494   21.248163 H          1 MOL1         0.0742
      12    H6      20.224316   18.393787   20.685736 H          1 MOL1         0.0742
      13    C5      20.030589   20.217141   21.828615 C.3        1 MOL1        -0.1880
      14    H7      21.086328   20.267433   22.128288 H          1 MOL1         0.0742
      15    H8      19.946866   20.783669   20.891097 H          1 MOL1         0.0742
      16    C6      19.150601   20.894719   22.903293 C.3        1 MOL1        -0.1856
      17    H9      19.280777   20.392923   23.871007 H          1 MOL1         0.0742
      18    H10     18.090827   20.796403   22.630515 H          1 MOL1         0.0742
      19    C7      19.501837   22.387735   23.062273 C.3        1 MOL1        -0.2871
      20    H11     20.550503   22.514389   23.361677 H          1 MOL1         0.0754
      21    H12     18.871284   22.853683   23.830621 H          1 MOL1         0.0754
      22    H13     19.345830   22.930911   22.121008 H          1 MOL1         0.0754
@<TRIPOS>BOND
    1     1     2    1
    2     1     3    2
    3     1     4    1
    4     4     5    1
    5     4     6    1
    6     4     7    1
    7     7     8    1
    8     7     9    1
    9     7    10    1
   10    10    11    1
   11    10    12    1
   12    10    13    1
   13    13    14    1
   14    13    15    1
   15    13    16    1
   16    16    17    1
   17    16    18    1
   18    16    19    1
   19    19    20    1
   20    19    21    1
   21    19    22    1
@<TRIPOS>SUBSTRUCTURE
       1 MOL1            1 RESIDUE      1      MOL     
@<SCITEGIC>MOL_PROPERTY
VConf Rank
SciTegic.value.IntegerValue
611

@<SCITEGIC>MOL_PROPERTY
Conf_Id
SciTegic.value.IntegerValue
53

@<SCITEGIC>MOL_PROPERTY
Delta U+W
SciTegic.value.DoubleValue
0.723

@<SCITEGIC>MOL_PROPERTY
U+W
SciTegic.value.DoubleValue
-52.436

@<SCITEGIC>MOL_PROPERTY
Grad RMS
SciTegic.value.DoubleValue
0.000000

@<SCITEGIC>MOL_PROPERTY
U
SciTegic.value.DoubleValue
8.587

@<SCITEGIC>MOL_PROPERTY
W
SciTegic.value.DoubleValue
-61.022

@<SCITEGIC>MOL_PROPERTY
W(PB)
SciTegic.value.DoubleValue
-63.285

@<SCITEGIC>MOL_PROPERTY
W(SA)
SciTegic.value.DoubleValue
2.263

@<SCITEGIC>MOL_PROPERTY
Valence
SciTegic.value.DoubleValue
7.933

@<SCITEGIC>MOL_PROPERTY
Coulomb
SciTegic.value.DoubleValue
-0.124

@<SCITEGIC>MOL_PROPERTY
VdW
SciTegic.value.DoubleValue
0.778

@<SCITEGIC>MOL_PROPERTY
VdW6
SciTegic.value.DoubleValue
-7.981

@<SCITEGIC>MOL_PROPERTY
VdW12
SciTegic.value.DoubleValue
8.759

@<SCITEGIC>MOL_PROPERTY
Bond
SciTegic.value.DoubleValue
0.160

@<SCITEGIC>MOL_PROPERTY
Angle
SciTegic.value.DoubleValue
2.698

@<SCITEGIC>MOL_PROPERTY
Pdih
SciTegic.value.DoubleValue
5.074

@<SCITEGIC>MOL_PROPERTY
Idih
SciTegic.value.DoubleValue
0.001

@<SCITEGIC>MOL_PROPERTY
Tether
SciTegic.value.DoubleValue
0.000

@<TRIPOS>MOLECULE
guest-s21_confgen4.mol2 : confsearch ligand conformer 612
          22          21           1
SMALL
USER_CHARGES
 
@<TRIPOS>ATOM
       1    C1      19.562661   16.900191   19.739964 C.2        1 MOL1         0.6145
       2    O1      19.701897   15.759402   20.134657 O.co2      1 MOL1        -0.6735
       3    O2      19.313100   17.186826   18.585779 O.co2      1 MOL1        -0.6735
       4    C2      19.685780   18.033104   20.752559 C.3        1 MOL1        -0.1985
       5    H1      20.076606   18.915203   20.231563 H          1 MOL1         0.0740
       6    H2      20.430741   17.731860   21.497552 H          1 MOL1         0.0740
       7    C3      18.339937   18.370237   21.442618 C.3        1 MOL1        -0.1882
       8    H3      17.578318   18.533644   20.667599 H          1 MOL1         0.0742
       9    H4      18.004521   17.500620   22.024441 H          1 MOL1         0.0742
      10    C4      18.386381   19.620236   22.356956 C.3        1 MOL1        -0.1880
      11    H5      17.371929   19.782938   22.746009 H          1 MOL1         0.0742
      12    H6      18.624831   20.513412   21.763380 H          1 MOL1         0.0742
      13    C5      19.352436   19.502545   23.563022 C.3        1 MOL1        -0.1880
      14    H7      18.898210   20.012296   24.423734 H          1 MOL1         0.0742
      15    H8      19.464163   18.449579   23.855840 H          1 MOL1         0.0742
      16    C6      20.737260   20.139530   23.303666 C.3        1 MOL1        -0.1856
      17    H9      20.613060   21.205580   23.068493 H          1 MOL1         0.0742
      18    H10     21.216820   19.679750   22.431318 H          1 MOL1         0.0742
      19    C7      21.664700   19.993307   24.526697 C.3        1 MOL1        -0.2871
      20    H11     21.230601   20.480183   25.409783 H          1 MOL1         0.0754
      21    H12     22.640448   20.456100   24.329791 H          1 MOL1         0.0754
      22    H13     21.833588   18.935324   24.766507 H          1 MOL1         0.0754
@<TRIPOS>BOND
    1     1     2    1
    2     1     3    2
    3     1     4    1
    4     4     5    1
    5     4     6    1
    6     4     7    1
    7     7     8    1
    8     7     9    1
    9     7    10    1
   10    10    11    1
   11    10    12    1
   12    10    13    1
   13    13    14    1
   14    13    15    1
   15    13    16    1
   16    16    17    1
   17    16    18    1
   18    16    19    1
   19    19    20    1
   20    19    21    1
   21    19    22    1
@<TRIPOS>SUBSTRUCTURE
       1 MOL1            1 RESIDUE      1      MOL     
@<SCITEGIC>MOL_PROPERTY
VConf Rank
SciTegic.value.IntegerValue
612

@<SCITEGIC>MOL_PROPERTY
Conf_Id
SciTegic.value.IntegerValue
5

@<SCITEGIC>MOL_PROPERTY
Delta U+W
SciTegic.value.DoubleValue
2.167

@<SCITEGIC>MOL_PROPERTY
U+W
SciTegic.value.DoubleValue
-50.993

@<SCITEGIC>MOL_PROPERTY
Grad RMS
SciTegic.value.DoubleValue
0.000000

@<SCITEGIC>MOL_PROPERTY
U
SciTegic.value.DoubleValue
10.045

@<SCITEGIC>MOL_PROPERTY
W
SciTegic.value.DoubleValue
-61.037

@<SCITEGIC>MOL_PROPERTY
W(PB)
SciTegic.value.DoubleValue
-63.303

@<SCITEGIC>MOL_PROPERTY
W(SA)
SciTegic.value.DoubleValue
2.266

@<SCITEGIC>MOL_PROPERTY
Valence
SciTegic.value.DoubleValue
10.100

@<SCITEGIC>MOL_PROPERTY
Coulomb
SciTegic.value.DoubleValue
-0.883

@<SCITEGIC>MOL_PROPERTY
VdW
SciTegic.value.DoubleValue
0.828

@<SCITEGIC>MOL_PROPERTY
VdW6
SciTegic.value.DoubleValue
-8.177

@<SCITEGIC>MOL_PROPERTY
VdW12
SciTegic.value.DoubleValue
9.005

@<SCITEGIC>MOL_PROPERTY
Bond
SciTegic.value.DoubleValue
0.182

@<SCITEGIC>MOL_PROPERTY
Angle
SciTegic.value.DoubleValue
2.988

@<SCITEGIC>MOL_PROPERTY
Pdih
SciTegic.value.DoubleValue
6.930

@<SCITEGIC>MOL_PROPERTY
Idih
SciTegic.value.DoubleValue
0.001

@<SCITEGIC>MOL_PROPERTY
Tether
SciTegic.value.DoubleValue
0.000

@<TRIPOS>MOLECULE
guest-s21_confgen4.mol2 : confsearch ligand conformer 613
          22          21           1
SMALL
USER_CHARGES
 
@<TRIPOS>ATOM
       1    C1      19.793104   15.562631   22.204745 C.2        1 MOL1         0.6145
       2    O1      20.779332   15.168424   21.614386 O.co2      1 MOL1        -0.6735
       3    O2      18.904186   14.830683   22.592895 O.co2      1 MOL1        -0.6735
       4    C2      19.651955   17.060262   22.452090 C.3        1 MOL1        -0.1985
       5    H1      20.657902   17.466813   22.605441 H          1 MOL1         0.0740
       6    H2      19.092485   17.200664   23.384593 H          1 MOL1         0.0740
       7    C3      18.945257   17.797155   21.286453 C.3        1 MOL1        -0.1882
       8    H3      19.560465   17.712875   20.379993 H          1 MOL1         0.0742
       9    H4      18.000399   17.281543   21.065524 H          1 MOL1         0.0742
      10    C4      18.636512   19.289221   21.567679 C.3        1 MOL1        -0.1880
      11    H5      17.941179   19.377849   22.413616 H          1 MOL1         0.0742
      12    H6      18.097558   19.685121   20.696050 H          1 MOL1         0.0742
      13    C5      19.886737   20.173870   21.804422 C.3        1 MOL1        -0.1880
      14    H7      20.752350   19.753749   21.274163 H          1 MOL1         0.0742
      15    H8      19.704385   21.160774   21.357474 H          1 MOL1         0.0742
      16    C6      20.218674   20.378280   23.300681 C.3        1 MOL1        -0.1856
      17    H9      20.379907   19.413408   23.796049 H          1 MOL1         0.0742
      18    H10     19.365023   20.851672   23.805037 H          1 MOL1         0.0742
      19    C7      21.471050   21.258201   23.486766 C.3        1 MOL1        -0.2871
      20    H11     22.349486   20.793835   23.019783 H          1 MOL1         0.0754
      21    H12     21.689322   21.399849   24.553221 H          1 MOL1         0.0754
      22    H13     21.326203   22.248697   23.035911 H          1 MOL1         0.0754
@<TRIPOS>BOND
    1     1     2    1
    2     1     3    2
    3     1     4    1
    4     4     5    1
    5     4     6    1
    6     4     7    1
    7     7     8    1
    8     7     9    1
    9     7    10    1
   10    10    11    1
   11    10    12    1
   12    10    13    1
   13    13    14    1
   14    13    15    1
   15    13    16    1
   16    16    17    1
   17    16    18    1
   18    16    19    1
   19    19    20    1
   20    19    21    1
   21    19    22    1
@<TRIPOS>SUBSTRUCTURE
       1 MOL1            1 RESIDUE      1      MOL     
@<SCITEGIC>MOL_PROPERTY
VConf Rank
SciTegic.value.IntegerValue
613

@<SCITEGIC>MOL_PROPERTY
Conf_Id
SciTegic.value.IntegerValue
6

@<SCITEGIC>MOL_PROPERTY
Delta U+W
SciTegic.value.DoubleValue
2.118

@<SCITEGIC>MOL_PROPERTY
U+W
SciTegic.value.DoubleValue
-51.042

@<SCITEGIC>MOL_PROPERTY
Grad RMS
SciTegic.value.DoubleValue
0.000000

@<SCITEGIC>MOL_PROPERTY
U
SciTegic.value.DoubleValue
10.045

@<SCITEGIC>MOL_PROPERTY
W
SciTegic.value.DoubleValue
-61.086

@<SCITEGIC>MOL_PROPERTY
W(PB)
SciTegic.value.DoubleValue
-63.356

@<SCITEGIC>MOL_PROPERTY
W(SA)
SciTegic.value.DoubleValue
2.270

@<SCITEGIC>MOL_PROPERTY
Valence
SciTegic.value.DoubleValue
10.100

@<SCITEGIC>MOL_PROPERTY
Coulomb
SciTegic.value.DoubleValue
-0.883

@<SCITEGIC>MOL_PROPERTY
VdW
SciTegic.value.DoubleValue
0.828

@<SCITEGIC>MOL_PROPERTY
VdW6
SciTegic.value.DoubleValue
-8.177

@<SCITEGIC>MOL_PROPERTY
VdW12
SciTegic.value.DoubleValue
9.004

@<SCITEGIC>MOL_PROPERTY
Bond
SciTegic.value.DoubleValue
0.182

@<SCITEGIC>MOL_PROPERTY
Angle
SciTegic.value.DoubleValue
2.988

@<SCITEGIC>MOL_PROPERTY
Pdih
SciTegic.value.DoubleValue
6.930

@<SCITEGIC>MOL_PROPERTY
Idih
SciTegic.value.DoubleValue
0.001

@<SCITEGIC>MOL_PROPERTY
Tether
SciTegic.value.DoubleValue
0.000

@<TRIPOS>MOLECULE
guest-s21_confgen4.mol2 : confsearch ligand conformer 614
          22          21           1
SMALL
USER_CHARGES
 
@<TRIPOS>ATOM
       1    C1      18.428314   17.982761   20.397269 C.2        1 MOL1         0.6145
       2    O1      17.359245   18.553438   20.302846 O.co2      1 MOL1        -0.6735
       3    O2      18.537970   16.810592   20.699015 O.co2      1 MOL1        -0.6735
       4    C2      19.697609   18.758581   20.050211 C.3        1 MOL1        -0.1985
       5    H1      19.613570   19.028889   18.991248 H          1 MOL1         0.0740
       6    H2      20.560493   18.086950   20.134981 H          1 MOL1         0.0740
       7    C3      19.935741   20.049008   20.883981 C.3        1 MOL1        -0.1882
       8    H3      20.630088   20.690476   20.324675 H          1 MOL1         0.0742
       9    H4      18.999787   20.618612   20.968321 H          1 MOL1         0.0742
      10    C4      20.541551   19.811637   22.289528 C.3        1 MOL1        -0.1880
      11    H5      20.807469   20.788360   22.716463 H          1 MOL1         0.0742
      12    H6      21.480717   19.249267   22.197125 H          1 MOL1         0.0742
      13    C5      19.594132   19.083115   23.269406 C.3        1 MOL1        -0.1880
      14    H7      18.618472   19.588024   23.283572 H          1 MOL1         0.0742
      15    H8      19.419492   18.055916   22.925279 H          1 MOL1         0.0742
      16    C6      20.174925   19.040011   24.698660 C.3        1 MOL1        -0.1856
      17    H9      20.347024   20.063098   25.060642 H          1 MOL1         0.0742
      18    H10     21.151681   18.536824   24.685828 H          1 MOL1         0.0742
      19    C7      19.232415   18.304760   25.672570 C.3        1 MOL1        -0.2871
      20    H11     18.257117   18.805812   25.728320 H          1 MOL1         0.0754
      21    H12     19.660646   18.282328   26.683084 H          1 MOL1         0.0754
      22    H13     19.067028   17.268070   25.350973 H          1 MOL1         0.0754
@<TRIPOS>BOND
    1     1     2    1
    2     1     3    2
    3     1     4    1
    4     4     5    1
    5     4     6    1
    6     4     7    1
    7     7     8    1
    8     7     9    1
    9     7    10    1
   10    10    11    1
   11    10    12    1
   12    10    13    1
   13    13    14    1
   14    13    15    1
   15    13    16    1
   16    16    17    1
   17    16    18    1
   18    16    19    1
   19    19    20    1
   20    19    21    1
   21    19    22    1
@<TRIPOS>SUBSTRUCTURE
       1 MOL1            1 RESIDUE      1      MOL     
@<SCITEGIC>MOL_PROPERTY
VConf Rank
SciTegic.value.IntegerValue
614

@<SCITEGIC>MOL_PROPERTY
Conf_Id
SciTegic.value.IntegerValue
8

@<SCITEGIC>MOL_PROPERTY
Delta U+W
SciTegic.value.DoubleValue
1.886

@<SCITEGIC>MOL_PROPERTY
U+W
SciTegic.value.DoubleValue
-51.274

@<SCITEGIC>MOL_PROPERTY
Grad RMS
SciTegic.value.DoubleValue
0.000000

@<SCITEGIC>MOL_PROPERTY
U
SciTegic.value.DoubleValue
11.237

@<SCITEGIC>MOL_PROPERTY
W
SciTegic.value.DoubleValue
-62.510

@<SCITEGIC>MOL_PROPERTY
W(PB)
SciTegic.value.DoubleValue
-64.777

@<SCITEGIC>MOL_PROPERTY
W(SA)
SciTegic.value.DoubleValue
2.267

@<SCITEGIC>MOL_PROPERTY
Valence
SciTegic.value.DoubleValue
9.029

@<SCITEGIC>MOL_PROPERTY
Coulomb
SciTegic.value.DoubleValue
1.667

@<SCITEGIC>MOL_PROPERTY
VdW
SciTegic.value.DoubleValue
0.540

@<SCITEGIC>MOL_PROPERTY
VdW6
SciTegic.value.DoubleValue
-8.825

@<SCITEGIC>MOL_PROPERTY
VdW12
SciTegic.value.DoubleValue
9.365

@<SCITEGIC>MOL_PROPERTY
Bond
SciTegic.value.DoubleValue
0.186

@<SCITEGIC>MOL_PROPERTY
Angle
SciTegic.value.DoubleValue
3.195

@<SCITEGIC>MOL_PROPERTY
Pdih
SciTegic.value.DoubleValue
5.642

@<SCITEGIC>MOL_PROPERTY
Idih
SciTegic.value.DoubleValue
0.007

@<SCITEGIC>MOL_PROPERTY
Tether
SciTegic.value.DoubleValue
0.000

@<TRIPOS>MOLECULE
guest-s21_confgen4.mol2 : confsearch ligand conformer 615
          22          21           1
SMALL
USER_CHARGES
 
@<TRIPOS>ATOM
       1    C1      17.555218   18.880362   24.693482 C.2        1 MOL1         0.6145
       2    O1      18.431937   18.661646   25.506064 O.co2      1 MOL1        -0.6735
       3    O2      16.507942   18.264849   24.652695 O.co2      1 MOL1        -0.6735
       4    C2      17.765744   20.008651   23.687595 C.3        1 MOL1        -0.1985
       5    H1      18.602327   20.629996   24.026368 H          1 MOL1         0.0740
       6    H2      16.874255   20.645663   23.722032 H          1 MOL1         0.0740
       7    C3      17.994350   19.525493   22.229019 C.3        1 MOL1        -0.1882
       8    H3      17.102701   18.975144   21.898258 H          1 MOL1         0.0742
       9    H4      18.078319   20.399237   21.568828 H          1 MOL1         0.0742
      10    C4      19.236183   18.620191   22.036643 C.3        1 MOL1        -0.1880
      11    H5      19.239922   18.267390   20.997648 H          1 MOL1         0.0742
      12    H6      19.144206   17.725333   22.667272 H          1 MOL1         0.0742
      13    C5      20.574346   19.336185   22.343431 C.3        1 MOL1        -0.1880
      14    H7      20.661147   20.242429   21.728875 H          1 MOL1         0.0742
      15    H8      20.577258   19.665428   23.390581 H          1 MOL1         0.0742
      16    C6      21.815213   18.439762   22.122806 C.3        1 MOL1        -0.1856
      17    H9      21.723443   17.525133   22.724812 H          1 MOL1         0.0742
      18    H10     22.701941   18.969456   22.497390 H          1 MOL1         0.0742
      19    C7      22.049844   18.068229   20.642359 C.3        1 MOL1        -0.2871
      20    H11     21.244613   17.431817   20.255149 H          1 MOL1         0.0754
      21    H12     22.991603   17.515512   20.530595 H          1 MOL1         0.0754
      22    H13     22.109989   18.967923   20.016235 H          1 MOL1         0.0754
@<TRIPOS>BOND
    1     1     2    1
    2     1     3    2
    3     1     4    1
    4     4     5    1
    5     4     6    1
    6     4     7    1
    7     7     8    1
    8     7     9    1
    9     7    10    1
   10    10    11    1
   11    10    12    1
   12    10    13    1
   13    13    14    1
   14    13    15    1
   15    13    16    1
   16    16    17    1
   17    16    18    1
   18    16    19    1
   19    19    20    1
   20    19    21    1
   21    19    22    1
@<TRIPOS>SUBSTRUCTURE
       1 MOL1            1 RESIDUE      1      MOL     
@<SCITEGIC>MOL_PROPERTY
VConf Rank
SciTegic.value.IntegerValue
615

@<SCITEGIC>MOL_PROPERTY
Conf_Id
SciTegic.value.IntegerValue
93

@<SCITEGIC>MOL_PROPERTY
Delta U+W
SciTegic.value.DoubleValue
1.836

@<SCITEGIC>MOL_PROPERTY
U+W
SciTegic.value.DoubleValue
-51.323

@<SCITEGIC>MOL_PROPERTY
Grad RMS
SciTegic.value.DoubleValue
0.000000

@<SCITEGIC>MOL_PROPERTY
U
SciTegic.value.DoubleValue
10.427

@<SCITEGIC>MOL_PROPERTY
W
SciTegic.value.DoubleValue
-61.751

@<SCITEGIC>MOL_PROPERTY
W(PB)
SciTegic.value.DoubleValue
-63.980

@<SCITEGIC>MOL_PROPERTY
W(SA)
SciTegic.value.DoubleValue
2.230

@<SCITEGIC>MOL_PROPERTY
Valence
SciTegic.value.DoubleValue
8.446

@<SCITEGIC>MOL_PROPERTY
Coulomb
SciTegic.value.DoubleValue
1.306

@<SCITEGIC>MOL_PROPERTY
VdW
SciTegic.value.DoubleValue
0.676

@<SCITEGIC>MOL_PROPERTY
VdW6
SciTegic.value.DoubleValue
-8.928

@<SCITEGIC>MOL_PROPERTY
VdW12
SciTegic.value.DoubleValue
9.604

@<SCITEGIC>MOL_PROPERTY
Bond
SciTegic.value.DoubleValue
0.209

@<SCITEGIC>MOL_PROPERTY
Angle
SciTegic.value.DoubleValue
3.066

@<SCITEGIC>MOL_PROPERTY
Pdih
SciTegic.value.DoubleValue
5.170

@<SCITEGIC>MOL_PROPERTY
Idih
SciTegic.value.DoubleValue
0.001

@<SCITEGIC>MOL_PROPERTY
Tether
SciTegic.value.DoubleValue
0.000

@<TRIPOS>MOLECULE
guest-s21_confgen4.mol2 : confsearch ligand conformer 616
          22          21           1
SMALL
USER_CHARGES
 
@<TRIPOS>ATOM
       1    C1      22.556636   18.018454   22.944561 C.2        1 MOL1         0.6145
       2    O1      22.977997   17.613216   24.010180 O.co2      1 MOL1        -0.6735
       3    O2      23.019819   18.977787   22.359832 O.co2      1 MOL1        -0.6735
       4    C2      21.402643   17.261582   22.292943 C.3        1 MOL1        -0.1985
       5    H1      21.671519   16.198842   22.289341 H          1 MOL1         0.0740
       6    H2      21.331584   17.565523   21.242572 H          1 MOL1         0.0740
       7    C3      20.037454   17.442395   23.011772 C.3        1 MOL1        -0.1882
       8    H3      19.281926   16.821201   22.512143 H          1 MOL1         0.0742
       9    H4      20.126289   17.053878   24.035730 H          1 MOL1         0.0742
      10    C4      19.532091   18.904916   23.077881 C.3        1 MOL1        -0.1880
      11    H5      20.265929   19.527387   23.607915 H          1 MOL1         0.0742
      12    H6      18.618005   18.919867   23.684692 H          1 MOL1         0.0742
      13    C5      19.238521   19.519016   21.687147 C.3        1 MOL1        -0.1880
      14    H7      20.160887   19.525599   21.092056 H          1 MOL1         0.0742
      15    H8      18.519934   18.888715   21.145992 H          1 MOL1         0.0742
      16    C6      18.706203   20.969485   21.756219 C.3        1 MOL1        -0.1856
      17    H9      18.662661   21.376314   20.736528 H          1 MOL1         0.0742
      18    H10     19.416039   21.598774   22.310753 H          1 MOL1         0.0742
      19    C7      17.303655   21.079928   22.392985 C.3        1 MOL1        -0.2871
      20    H11     17.320274   20.798838   23.453203 H          1 MOL1         0.0754
      21    H12     16.584921   20.431476   21.875269 H          1 MOL1         0.0754
      22    H13     16.934195   22.111617   22.329627 H          1 MOL1         0.0754
@<TRIPOS>BOND
    1     1     2    1
    2     1     3    2
    3     1     4    1
    4     4     5    1
    5     4     6    1
    6     4     7    1
    7     7     8    1
    8     7     9    1
    9     7    10    1
   10    10    11    1
   11    10    12    1
   12    10    13    1
   13    13    14    1
   14    13    15    1
   15    13    16    1
   16    16    17    1
   17    16    18    1
   18    16    19    1
   19    19    20    1
   20    19    21    1
   21    19    22    1
@<TRIPOS>SUBSTRUCTURE
       1 MOL1            1 RESIDUE      1      MOL     
@<SCITEGIC>MOL_PROPERTY
VConf Rank
SciTegic.value.IntegerValue
616

@<SCITEGIC>MOL_PROPERTY
Conf_Id
SciTegic.value.IntegerValue
70

@<SCITEGIC>MOL_PROPERTY
Delta U+W
SciTegic.value.DoubleValue
1.803

@<SCITEGIC>MOL_PROPERTY
U+W
SciTegic.value.DoubleValue
-51.356

@<SCITEGIC>MOL_PROPERTY
Grad RMS
SciTegic.value.DoubleValue
0.000000

@<SCITEGIC>MOL_PROPERTY
U
SciTegic.value.DoubleValue
10.428

@<SCITEGIC>MOL_PROPERTY
W
SciTegic.value.DoubleValue
-61.784

@<SCITEGIC>MOL_PROPERTY
W(PB)
SciTegic.value.DoubleValue
-64.014

@<SCITEGIC>MOL_PROPERTY
W(SA)
SciTegic.value.DoubleValue
2.230

@<SCITEGIC>MOL_PROPERTY
Valence
SciTegic.value.DoubleValue
8.445

@<SCITEGIC>MOL_PROPERTY
Coulomb
SciTegic.value.DoubleValue
1.306

@<SCITEGIC>MOL_PROPERTY
VdW
SciTegic.value.DoubleValue
0.676

@<SCITEGIC>MOL_PROPERTY
VdW6
SciTegic.value.DoubleValue
-8.929

@<SCITEGIC>MOL_PROPERTY
VdW12
SciTegic.value.DoubleValue
9.605

@<SCITEGIC>MOL_PROPERTY
Bond
SciTegic.value.DoubleValue
0.209

@<SCITEGIC>MOL_PROPERTY
Angle
SciTegic.value.DoubleValue
3.066

@<SCITEGIC>MOL_PROPERTY
Pdih
SciTegic.value.DoubleValue
5.170

@<SCITEGIC>MOL_PROPERTY
Idih
SciTegic.value.DoubleValue
0.001

@<SCITEGIC>MOL_PROPERTY
Tether
SciTegic.value.DoubleValue
0.000

@<TRIPOS>MOLECULE
guest-s21_confgen4.mol2 : confsearch ligand conformer 617
          22          21           1
SMALL
USER_CHARGES
 
@<TRIPOS>ATOM
       1    C1      17.197592   16.890697   21.816493 C.2        1 MOL1         0.6145
       2    O1      17.438460   15.958829   22.558461 O.co2      1 MOL1        -0.6735
       3    O2      17.060021   16.775011   20.614591 O.co2      1 MOL1        -0.6735
       4    C2      17.038770   18.277876   22.432616 C.3        1 MOL1        -0.1985
       5    H1      16.407641   18.171564   23.322791 H          1 MOL1         0.0740
       6    H2      16.488767   18.913151   21.727803 H          1 MOL1         0.0740
       7    C3      18.380163   18.949401   22.825940 C.3        1 MOL1        -0.1882
       8    H3      18.167493   19.876025   23.375854 H          1 MOL1         0.0742
       9    H4      18.920389   18.287285   23.515424 H          1 MOL1         0.0742
      10    C4      19.261473   19.275741   21.596567 C.3        1 MOL1        -0.1880
      11    H5      18.671814   19.865056   20.881129 H          1 MOL1         0.0742
      12    H6      19.537843   18.347082   21.078382 H          1 MOL1         0.0742
      13    C5      20.541699   20.069429   21.949567 C.3        1 MOL1        -0.1880
      14    H7      21.038371   20.362263   21.014443 H          1 MOL1         0.0742
      15    H8      20.267593   21.002307   22.460908 H          1 MOL1         0.0742
      16    C6      21.539923   19.272263   22.819189 C.3        1 MOL1        -0.1856
      17    H9      21.773151   18.315209   22.332443 H          1 MOL1         0.0742
      18    H10     21.089256   19.035597   23.791941 H          1 MOL1         0.0742
      19    C7      22.844629   20.061176   23.049608 C.3        1 MOL1        -0.2871
      20    H11     23.343884   20.282425   22.097167 H          1 MOL1         0.0754
      21    H12     23.541258   19.483473   23.670919 H          1 MOL1         0.0754
      22    H13     22.643260   21.011937   23.560369 H          1 MOL1         0.0754
@<TRIPOS>BOND
    1     1     2    1
    2     1     3    2
    3     1     4    1
    4     4     5    1
    5     4     6    1
    6     4     7    1
    7     7     8    1
    8     7     9    1
    9     7    10    1
   10    10    11    1
   11    10    12    1
   12    10    13    1
   13    13    14    1
   14    13    15    1
   15    13    16    1
   16    16    17    1
   17    16    18    1
   18    16    19    1
   19    19    20    1
   20    19    21    1
   21    19    22    1
@<TRIPOS>SUBSTRUCTURE
       1 MOL1            1 RESIDUE      1      MOL     
@<SCITEGIC>MOL_PROPERTY
VConf Rank
SciTegic.value.IntegerValue
617

@<SCITEGIC>MOL_PROPERTY
Conf_Id
SciTegic.value.IntegerValue
85

@<SCITEGIC>MOL_PROPERTY
Delta U+W
SciTegic.value.DoubleValue
0.707

@<SCITEGIC>MOL_PROPERTY
U+W
SciTegic.value.DoubleValue
-52.452

@<SCITEGIC>MOL_PROPERTY
Grad RMS
SciTegic.value.DoubleValue
0.000000

@<SCITEGIC>MOL_PROPERTY
U
SciTegic.value.DoubleValue
8.925

@<SCITEGIC>MOL_PROPERTY
W
SciTegic.value.DoubleValue
-61.378

@<SCITEGIC>MOL_PROPERTY
W(PB)
SciTegic.value.DoubleValue
-63.661

@<SCITEGIC>MOL_PROPERTY
W(SA)
SciTegic.value.DoubleValue
2.283

@<SCITEGIC>MOL_PROPERTY
Valence
SciTegic.value.DoubleValue
7.881

@<SCITEGIC>MOL_PROPERTY
Coulomb
SciTegic.value.DoubleValue
0.349

@<SCITEGIC>MOL_PROPERTY
VdW
SciTegic.value.DoubleValue
0.695

@<SCITEGIC>MOL_PROPERTY
VdW6
SciTegic.value.DoubleValue
-8.049

@<SCITEGIC>MOL_PROPERTY
VdW12
SciTegic.value.DoubleValue
8.743

@<SCITEGIC>MOL_PROPERTY
Bond
SciTegic.value.DoubleValue
0.156

@<SCITEGIC>MOL_PROPERTY
Angle
SciTegic.value.DoubleValue
2.660

@<SCITEGIC>MOL_PROPERTY
Pdih
SciTegic.value.DoubleValue
5.064

@<SCITEGIC>MOL_PROPERTY
Idih
SciTegic.value.DoubleValue
0.001

@<SCITEGIC>MOL_PROPERTY
Tether
SciTegic.value.DoubleValue
0.000

@<TRIPOS>MOLECULE
guest-s21_confgen4.mol2 : confsearch ligand conformer 618
          22          21           1
SMALL
USER_CHARGES
 
@<TRIPOS>ATOM
       1    C1      22.402843   20.256991   24.049148 C.2        1 MOL1         0.6145
       2    O1      22.029249   21.038823   24.901267 O.co2      1 MOL1        -0.6735
       3    O2      23.240407   19.398561   24.245512 O.co2      1 MOL1        -0.6735
       4    C2      21.805861   20.372723   22.649286 C.3        1 MOL1        -0.1985
       5    H1      22.636137   20.323184   21.935019 H          1 MOL1         0.0740
       6    H2      21.353404   21.365980   22.541685 H          1 MOL1         0.0740
       7    C3      20.767042   19.271706   22.311198 C.3        1 MOL1        -0.1882
       8    H3      20.518926   19.346623   21.245022 H          1 MOL1         0.0742
       9    H4      21.218973   18.282624   22.468529 H          1 MOL1         0.0742
      10    C4      19.472472   19.398002   23.147392 C.3        1 MOL1        -0.1880
      11    H5      18.982419   20.354210   22.918886 H          1 MOL1         0.0742
      12    H6      19.733915   19.434848   24.213756 H          1 MOL1         0.0742
      13    C5      18.464786   18.239732   22.938813 C.3        1 MOL1        -0.1880
      14    H7      18.914830   17.288085   23.253068 H          1 MOL1         0.0742
      15    H8      17.620985   18.409987   23.621368 H          1 MOL1         0.0742
      16    C6      17.903347   18.118820   21.500039 C.3        1 MOL1        -0.1856
      17    H9      17.910726   19.099286   21.004215 H          1 MOL1         0.0742
      18    H10     16.849162   17.814651   21.558979 H          1 MOL1         0.0742
      19    C7      18.652708   17.077193   20.639515 C.3        1 MOL1        -0.2871
      20    H11     19.713410   17.328059   20.526024 H          1 MOL1         0.0754
      21    H12     18.212414   17.020451   19.635652 H          1 MOL1         0.0754
      22    H13     18.587704   16.078807   21.091274 H          1 MOL1         0.0754
@<TRIPOS>BOND
    1     1     2    1
    2     1     3    2
    3     1     4    1
    4     4     5    1
    5     4     6    1
    6     4     7    1
    7     7     8    1
    8     7     9    1
    9     7    10    1
   10    10    11    1
   11    10    12    1
   12    10    13    1
   13    13    14    1
   14    13    15    1
   15    13    16    1
   16    16    17    1
   17    16    18    1
   18    16    19    1
   19    19    20    1
   20    19    21    1
   21    19    22    1
@<TRIPOS>SUBSTRUCTURE
       1 MOL1            1 RESIDUE      1      MOL     
@<SCITEGIC>MOL_PROPERTY
VConf Rank
SciTegic.value.IntegerValue
618

@<SCITEGIC>MOL_PROPERTY
Conf_Id
SciTegic.value.IntegerValue
82

@<SCITEGIC>MOL_PROPERTY
Delta U+W
SciTegic.value.DoubleValue
3.438

@<SCITEGIC>MOL_PROPERTY
U+W
SciTegic.value.DoubleValue
-49.721

@<SCITEGIC>MOL_PROPERTY
Grad RMS
SciTegic.value.DoubleValue
0.000000

@<SCITEGIC>MOL_PROPERTY
U
SciTegic.value.DoubleValue
11.773

@<SCITEGIC>MOL_PROPERTY
W
SciTegic.value.DoubleValue
-61.495

@<SCITEGIC>MOL_PROPERTY
W(PB)
SciTegic.value.DoubleValue
-63.749

@<SCITEGIC>MOL_PROPERTY
W(SA)
SciTegic.value.DoubleValue
2.254

@<SCITEGIC>MOL_PROPERTY
Valence
SciTegic.value.DoubleValue
10.419

@<SCITEGIC>MOL_PROPERTY
Coulomb
SciTegic.value.DoubleValue
0.565

@<SCITEGIC>MOL_PROPERTY
VdW
SciTegic.value.DoubleValue
0.789

@<SCITEGIC>MOL_PROPERTY
VdW6
SciTegic.value.DoubleValue
-8.847

@<SCITEGIC>MOL_PROPERTY
VdW12
SciTegic.value.DoubleValue
9.636

@<SCITEGIC>MOL_PROPERTY
Bond
SciTegic.value.DoubleValue
0.200

@<SCITEGIC>MOL_PROPERTY
Angle
SciTegic.value.DoubleValue
3.187

@<SCITEGIC>MOL_PROPERTY
Pdih
SciTegic.value.DoubleValue
7.032

@<SCITEGIC>MOL_PROPERTY
Idih
SciTegic.value.DoubleValue
0.001

@<SCITEGIC>MOL_PROPERTY
Tether
SciTegic.value.DoubleValue
0.000

@<TRIPOS>MOLECULE
guest-s21_confgen4.mol2 : confsearch ligand conformer 619
          22          21           1
SMALL
USER_CHARGES
 
@<TRIPOS>ATOM
       1    C1      16.862188   19.515285   21.211114 C.2        1 MOL1         0.6145
       2    O1      16.942081   19.699983   20.012583 O.co2      1 MOL1        -0.6735
       3    O2      16.017977   18.809948   21.727589 O.co2      1 MOL1        -0.6735
       4    C2      17.863149   20.227250   22.116973 C.3        1 MOL1        -0.1985
       5    H1      17.462973   20.243200   23.137983 H          1 MOL1         0.0740
       6    H2      17.921956   21.269804   21.782884 H          1 MOL1         0.0740
       7    C3      19.282056   19.600904   22.107776 C.3        1 MOL1        -0.1882
       8    H3      19.651140   19.548009   21.074210 H          1 MOL1         0.0742
       9    H4      19.957746   20.268193   22.657389 H          1 MOL1         0.0742
      10    C4      19.316341   18.195405   22.751576 C.3        1 MOL1        -0.1880
      11    H5      18.558838   17.560413   22.272185 H          1 MOL1         0.0742
      12    H6      19.027937   18.271300   23.808819 H          1 MOL1         0.0742
      13    C5      20.685250   17.478184   22.641071 C.3        1 MOL1        -0.1880
      14    H7      20.569284   16.477317   23.078887 H          1 MOL1         0.0742
      15    H8      20.939905   17.313758   21.585115 H          1 MOL1         0.0742
      16    C6      21.852023   18.190302   23.370060 C.3        1 MOL1        -0.1856
      17    H9      22.511759   17.427178   23.805593 H          1 MOL1         0.0742
      18    H10     21.470302   18.781257   24.214022 H          1 MOL1         0.0742
      19    C7      22.702707   19.078475   22.434907 C.3        1 MOL1        -0.2871
      20    H11     23.148506   18.481207   21.628917 H          1 MOL1         0.0754
      21    H12     23.520588   19.551253   22.993808 H          1 MOL1         0.0754
      22    H13     22.107264   19.875257   21.975028 H          1 MOL1         0.0754
@<TRIPOS>BOND
    1     1     2    1
    2     1     3    2
    3     1     4    1
    4     4     5    1
    5     4     6    1
    6     4     7    1
    7     7     8    1
    8     7     9    1
    9     7    10    1
   10    10    11    1
   11    10    12    1
   12    10    13    1
   13    13    14    1
   14    13    15    1
   15    13    16    1
   16    16    17    1
   17    16    18    1
   18    16    19    1
   19    19    20    1
   20    19    21    1
   21    19    22    1
@<TRIPOS>SUBSTRUCTURE
       1 MOL1            1 RESIDUE      1      MOL     
@<SCITEGIC>MOL_PROPERTY
VConf Rank
SciTegic.value.IntegerValue
619

@<SCITEGIC>MOL_PROPERTY
Conf_Id
SciTegic.value.IntegerValue
94

@<SCITEGIC>MOL_PROPERTY
Delta U+W
SciTegic.value.DoubleValue
3.471

@<SCITEGIC>MOL_PROPERTY
U+W
SciTegic.value.DoubleValue
-49.688

@<SCITEGIC>MOL_PROPERTY
Grad RMS
SciTegic.value.DoubleValue
0.000000

@<SCITEGIC>MOL_PROPERTY
U
SciTegic.value.DoubleValue
11.773

@<SCITEGIC>MOL_PROPERTY
W
SciTegic.value.DoubleValue
-61.461

@<SCITEGIC>MOL_PROPERTY
W(PB)
SciTegic.value.DoubleValue
-63.710

@<SCITEGIC>MOL_PROPERTY
W(SA)
SciTegic.value.DoubleValue
2.248

@<SCITEGIC>MOL_PROPERTY
Valence
SciTegic.value.DoubleValue
10.419

@<SCITEGIC>MOL_PROPERTY
Coulomb
SciTegic.value.DoubleValue
0.566

@<SCITEGIC>MOL_PROPERTY
VdW
SciTegic.value.DoubleValue
0.789

@<SCITEGIC>MOL_PROPERTY
VdW6
SciTegic.value.DoubleValue
-8.847

@<SCITEGIC>MOL_PROPERTY
VdW12
SciTegic.value.DoubleValue
9.636

@<SCITEGIC>MOL_PROPERTY
Bond
SciTegic.value.DoubleValue
0.200

@<SCITEGIC>MOL_PROPERTY
Angle
SciTegic.value.DoubleValue
3.187

@<SCITEGIC>MOL_PROPERTY
Pdih
SciTegic.value.DoubleValue
7.032

@<SCITEGIC>MOL_PROPERTY
Idih
SciTegic.value.DoubleValue
0.001

@<SCITEGIC>MOL_PROPERTY
Tether
SciTegic.value.DoubleValue
0.000

@<TRIPOS>MOLECULE
guest-s21_confgen4.mol2 : confsearch ligand conformer 620
          22          21           1
SMALL
USER_CHARGES
 
@<TRIPOS>ATOM
       1    C1      17.230319   19.833002   24.313342 C.2        1 MOL1         0.6145
       2    O1      17.161126   20.295055   25.435134 O.co2      1 MOL1        -0.6735
       3    O2      16.393699   19.090194   23.839129 O.co2      1 MOL1        -0.6735
       4    C2      18.443203   20.189774   23.461545 C.3        1 MOL1        -0.1985
       5    H1      18.759059   21.205812   23.726374 H          1 MOL1         0.0740
       6    H2      18.120890   20.211206   22.414316 H          1 MOL1         0.0740
       7    C3      19.620393   19.197891   23.648217 C.3        1 MOL1        -0.1882
       8    H3      19.864884   19.137490   24.717644 H          1 MOL1         0.0742
       9    H4      19.301894   18.189550   23.352186 H          1 MOL1         0.0742
      10    C4      20.898503   19.602205   22.871442 C.3        1 MOL1        -0.1880
      11    H5      21.694889   18.881265   23.098353 H          1 MOL1         0.0742
      12    H6      21.254776   20.568340   23.253802 H          1 MOL1         0.0742
      13    C5      20.729651   19.710929   21.332990 C.3        1 MOL1        -0.1880
      14    H7      20.054207   20.544261   21.099355 H          1 MOL1         0.0742
      15    H8      21.698724   19.982850   20.893102 H          1 MOL1         0.0742
      16    C6      20.207296   18.430981   20.635275 C.3        1 MOL1        -0.1856
      17    H9      20.103752   18.635181   19.560804 H          1 MOL1         0.0742
      18    H10     19.199251   18.187747   20.996779 H          1 MOL1         0.0742
      19    C7      21.136425   17.212125   20.822126 C.3        1 MOL1        -0.2871
      20    H11     22.155071   17.438980   20.481755 H          1 MOL1         0.0754
      21    H12     20.768286   16.355822   20.242502 H          1 MOL1         0.0754
      22    H13     21.184865   16.905707   21.874608 H          1 MOL1         0.0754
@<TRIPOS>BOND
    1     1     2    1
    2     1     3    2
    3     1     4    1
    4     4     5    1
    5     4     6    1
    6     4     7    1
    7     7     8    1
    8     7     9    1
    9     7    10    1
   10    10    11    1
   11    10    12    1
   12    10    13    1
   13    13    14    1
   14    13    15    1
   15    13    16    1
   16    16    17    1
   17    16    18    1
   18    16    19    1
   19    19    20    1
   20    19    21    1
   21    19    22    1
@<TRIPOS>SUBSTRUCTURE
       1 MOL1            1 RESIDUE      1      MOL     
@<SCITEGIC>MOL_PROPERTY
VConf Rank
SciTegic.value.IntegerValue
620

@<SCITEGIC>MOL_PROPERTY
Conf_Id
SciTegic.value.IntegerValue
56

@<SCITEGIC>MOL_PROPERTY
Delta U+W
SciTegic.value.DoubleValue
0.853

@<SCITEGIC>MOL_PROPERTY
U+W
SciTegic.value.DoubleValue
-52.307

@<SCITEGIC>MOL_PROPERTY
Grad RMS
SciTegic.value.DoubleValue
0.000000

@<SCITEGIC>MOL_PROPERTY
U
SciTegic.value.DoubleValue
8.874

@<SCITEGIC>MOL_PROPERTY
W
SciTegic.value.DoubleValue
-61.181

@<SCITEGIC>MOL_PROPERTY
W(PB)
SciTegic.value.DoubleValue
-63.413

@<SCITEGIC>MOL_PROPERTY
W(SA)
SciTegic.value.DoubleValue
2.232

@<SCITEGIC>MOL_PROPERTY
Valence
SciTegic.value.DoubleValue
8.479

@<SCITEGIC>MOL_PROPERTY
Coulomb
SciTegic.value.DoubleValue
-0.357

@<SCITEGIC>MOL_PROPERTY
VdW
SciTegic.value.DoubleValue
0.753

@<SCITEGIC>MOL_PROPERTY
VdW6
SciTegic.value.DoubleValue
-9.081

@<SCITEGIC>MOL_PROPERTY
VdW12
SciTegic.value.DoubleValue
9.833

@<SCITEGIC>MOL_PROPERTY
Bond
SciTegic.value.DoubleValue
0.221

@<SCITEGIC>MOL_PROPERTY
Angle
SciTegic.value.DoubleValue
3.208

@<SCITEGIC>MOL_PROPERTY
Pdih
SciTegic.value.DoubleValue
5.050

@<SCITEGIC>MOL_PROPERTY
Idih
SciTegic.value.DoubleValue
0.000

@<SCITEGIC>MOL_PROPERTY
Tether
SciTegic.value.DoubleValue
0.000

@<TRIPOS>MOLECULE
guest-s21_confgen4.mol2 : confsearch ligand conformer 621
          22          21           1
SMALL
USER_CHARGES
 
@<TRIPOS>ATOM
       1    C1      21.952487   18.253629   25.536795 C.2        1 MOL1         0.6145
       2    O1      23.018553   18.308946   24.954691 O.co2      1 MOL1        -0.6735
       3    O2      21.858212   18.046332   26.730136 O.co2      1 MOL1        -0.6735
       4    C2      20.651095   18.449899   24.757447 C.3        1 MOL1        -0.1985
       5    H1      20.116078   19.287573   25.220078 H          1 MOL1         0.0740
       6    H2      20.039024   17.553552   24.912045 H          1 MOL1         0.0740
       7    C3      20.822186   18.712315   23.237489 C.3        1 MOL1        -0.1882
       8    H3      21.441449   19.607944   23.089670 H          1 MOL1         0.0742
       9    H4      21.364157   17.872277   22.781316 H          1 MOL1         0.0742
      10    C4      19.462185   18.898530   22.530218 C.3        1 MOL1        -0.1880
      11    H5      18.922244   19.738809   22.987957 H          1 MOL1         0.0742
      12    H6      18.844845   18.002017   22.679504 H          1 MOL1         0.0742
      13    C5      19.634660   19.159334   21.018417 C.3        1 MOL1        -0.1880
      14    H7      20.252006   20.055755   20.868618 H          1 MOL1         0.0742
      15    H8      20.174543   18.319268   20.560221 H          1 MOL1         0.0742
      16    C6      18.275988   19.345579   20.311009 C.3        1 MOL1        -0.1856
      17    H9      17.733859   20.186490   20.765367 H          1 MOL1         0.0742
      18    H10     17.656349   18.449922   20.457025 H          1 MOL1         0.0742
      19    C7      18.452573   19.605713   18.801544 C.3        1 MOL1        -0.2871
      20    H11     19.042885   20.514632   18.626028 H          1 MOL1         0.0754
      21    H12     17.477306   19.735729   18.314675 H          1 MOL1         0.0754
      22    H13     18.964725   18.765033   18.315370 H          1 MOL1         0.0754
@<TRIPOS>BOND
    1     1     2    1
    2     1     3    2
    3     1     4    1
    4     4     5    1
    5     4     6    1
    6     4     7    1
    7     7     8    1
    8     7     9    1
    9     7    10    1
   10    10    11    1
   11    10    12    1
   12    10    13    1
   13    13    14    1
   14    13    15    1
   15    13    16    1
   16    16    17    1
   17    16    18    1
   18    16    19    1
   19    19    20    1
   20    19    21    1
   21    19    22    1
@<TRIPOS>SUBSTRUCTURE
       1 MOL1            1 RESIDUE      1      MOL     
@<SCITEGIC>MOL_PROPERTY
VConf Rank
SciTegic.value.IntegerValue
621

@<SCITEGIC>MOL_PROPERTY
Conf_Id
SciTegic.value.IntegerValue
0

@<SCITEGIC>MOL_PROPERTY
Delta U+W
SciTegic.value.DoubleValue
0.000

@<SCITEGIC>MOL_PROPERTY
U+W
SciTegic.value.DoubleValue
-53.159

@<SCITEGIC>MOL_PROPERTY
Grad RMS
SciTegic.value.DoubleValue
0.000000

@<SCITEGIC>MOL_PROPERTY
U
SciTegic.value.DoubleValue
6.763

@<SCITEGIC>MOL_PROPERTY
W
SciTegic.value.DoubleValue
-59.922

@<SCITEGIC>MOL_PROPERTY
W(PB)
SciTegic.value.DoubleValue
-62.256

@<SCITEGIC>MOL_PROPERTY
W(SA)
SciTegic.value.DoubleValue
2.334

@<SCITEGIC>MOL_PROPERTY
Valence
SciTegic.value.DoubleValue
7.600

@<SCITEGIC>MOL_PROPERTY
Coulomb
SciTegic.value.DoubleValue
-2.139

@<SCITEGIC>MOL_PROPERTY
VdW
SciTegic.value.DoubleValue
1.302

@<SCITEGIC>MOL_PROPERTY
VdW6
SciTegic.value.DoubleValue
-6.786

@<SCITEGIC>MOL_PROPERTY
VdW12
SciTegic.value.DoubleValue
8.088

@<SCITEGIC>MOL_PROPERTY
Bond
SciTegic.value.DoubleValue
0.134

@<SCITEGIC>MOL_PROPERTY
Angle
SciTegic.value.DoubleValue
2.720

@<SCITEGIC>MOL_PROPERTY
Pdih
SciTegic.value.DoubleValue
4.746

@<SCITEGIC>MOL_PROPERTY
Idih
SciTegic.value.DoubleValue
0.000

@<SCITEGIC>MOL_PROPERTY
Tether
SciTegic.value.DoubleValue
0.000

@<TRIPOS>MOLECULE
guest-s21_confgen4.mol2 : confsearch ligand conformer 622
          22          21           1
SMALL
USER_CHARGES
 
@<TRIPOS>ATOM
       1    C1      18.558189   16.628005   25.187123 C.2        1 MOL1         0.6145
       2    O1      19.413454   15.884781   25.625950 O.co2      1 MOL1        -0.6735
       3    O2      17.376869   16.346187   25.148496 O.co2      1 MOL1        -0.6735
       4    C2      18.994221   17.980005   24.633782 C.3        1 MOL1        -0.1985
       5    H1      19.864737   18.318649   25.208399 H          1 MOL1         0.0740
       6    H2      18.186299   18.699033   24.815229 H          1 MOL1         0.0740
       7    C3      19.336540   17.930309   23.124346 C.3        1 MOL1        -0.1882
       8    H3      20.137627   17.196739   22.957887 H          1 MOL1         0.0742
       9    H4      18.459240   17.577114   22.564729 H          1 MOL1         0.0742
      10    C4      19.774825   19.310427   22.588565 C.3        1 MOL1        -0.1880
      11    H5      20.651172   19.661124   23.150882 H          1 MOL1         0.0742
      12    H6      18.972364   20.041613   22.757662 H          1 MOL1         0.0742
      13    C5      20.115373   19.257815   21.083722 C.3        1 MOL1        -0.1880
      14    H7      20.917800   18.526720   20.914206 H          1 MOL1         0.0742
      15    H8      19.239271   18.907145   20.521047 H          1 MOL1         0.0742
      16    C6      20.553510   20.636788   20.547496 C.3        1 MOL1        -0.1856
      17    H9      21.431027   20.990043   21.106647 H          1 MOL1         0.0742
      18    H10     19.752502   21.370481   20.713500 H          1 MOL1         0.0742
      19    C7      20.892693   20.580043   19.044474 C.3        1 MOL1        -0.2871
      20    H11     20.022179   20.259570   18.457185 H          1 MOL1         0.0754
      21    H12     21.713270   19.876118   18.853291 H          1 MOL1         0.0754
      22    H13     21.202117   21.568271   18.680117 H          1 MOL1         0.0754
@<TRIPOS>BOND
    1     1     2    1
    2     1     3    2
    3     1     4    1
    4     4     5    1
    5     4     6    1
    6     4     7    1
    7     7     8    1
    8     7     9    1
    9     7    10    1
   10    10    11    1
   11    10    12    1
   12    10    13    1
   13    13    14    1
   14    13    15    1
   15    13    16    1
   16    16    17    1
   17    16    18    1
   18    16    19    1
   19    19    20    1
   20    19    21    1
   21    19    22    1
@<TRIPOS>SUBSTRUCTURE
       1 MOL1            1 RESIDUE      1      MOL     
@<SCITEGIC>MOL_PROPERTY
VConf Rank
SciTegic.value.IntegerValue
622

@<SCITEGIC>MOL_PROPERTY
Conf_Id
SciTegic.value.IntegerValue
10

@<SCITEGIC>MOL_PROPERTY
Delta U+W
SciTegic.value.DoubleValue
-1.291

@<SCITEGIC>MOL_PROPERTY
U+W
SciTegic.value.DoubleValue
-54.451

@<SCITEGIC>MOL_PROPERTY
Grad RMS
SciTegic.value.DoubleValue
0.000000

@<SCITEGIC>MOL_PROPERTY
U
SciTegic.value.DoubleValue
5.779

@<SCITEGIC>MOL_PROPERTY
W
SciTegic.value.DoubleValue
-60.230

@<SCITEGIC>MOL_PROPERTY
W(PB)
SciTegic.value.DoubleValue
-62.557

@<SCITEGIC>MOL_PROPERTY
W(SA)
SciTegic.value.DoubleValue
2.328

@<SCITEGIC>MOL_PROPERTY
Valence
SciTegic.value.DoubleValue
7.101

@<SCITEGIC>MOL_PROPERTY
Coulomb
SciTegic.value.DoubleValue
-2.079

@<SCITEGIC>MOL_PROPERTY
VdW
SciTegic.value.DoubleValue
0.757

@<SCITEGIC>MOL_PROPERTY
VdW6
SciTegic.value.DoubleValue
-6.496

@<SCITEGIC>MOL_PROPERTY
VdW12
SciTegic.value.DoubleValue
7.253

@<SCITEGIC>MOL_PROPERTY
Bond
SciTegic.value.DoubleValue
0.100

@<SCITEGIC>MOL_PROPERTY
Angle
SciTegic.value.DoubleValue
2.262

@<SCITEGIC>MOL_PROPERTY
Pdih
SciTegic.value.DoubleValue
4.738

@<SCITEGIC>MOL_PROPERTY
Idih
SciTegic.value.DoubleValue
0.001

@<SCITEGIC>MOL_PROPERTY
Tether
SciTegic.value.DoubleValue
0.000

@<TRIPOS>MOLECULE
guest-s21_confgen4.mol2 : confsearch ligand conformer 623
          22          21           1
SMALL
USER_CHARGES
 
@<TRIPOS>ATOM
       1    C1      20.125984   21.101790   25.438044 C.2        1 MOL1         0.6145
       2    O1      19.036723   21.405940   25.882405 O.co2      1 MOL1        -0.6735
       3    O2      21.127372   21.004049   26.119312 O.co2      1 MOL1        -0.6735
       4    C2      20.238119   20.805931   23.946702 C.3        1 MOL1        -0.1985
       5    H1      21.238041   21.108793   23.613423 H          1 MOL1         0.0740
       6    H2      19.514818   21.438744   23.418458 H          1 MOL1         0.0740
       7    C3      19.990953   19.315029   23.608662 C.3        1 MOL1        -0.1882
       8    H3      20.714339   18.694527   24.155654 H          1 MOL1         0.0742
       9    H4      18.991116   19.024138   23.959745 H          1 MOL1         0.0742
      10    C4      20.110019   19.041677   22.093589 C.3        1 MOL1        -0.1880
      11    H5      21.111032   19.331404   21.745902 H          1 MOL1         0.0742
      12    H6      19.388619   19.671323   21.556660 H          1 MOL1         0.0742
      13    C5      19.858819   17.552875   21.760981 C.3        1 MOL1        -0.1880
      14    H7      20.540731   16.933038   22.359087 H          1 MOL1         0.0742
      15    H8      18.839800   17.273159   22.061468 H          1 MOL1         0.0742
      16    C6      20.069112   17.212665   20.267213 C.3        1 MOL1        -0.1856
      17    H9      19.987796   16.124487   20.138790 H          1 MOL1         0.0742
      18    H10     21.089590   17.485310   19.964561 H          1 MOL1         0.0742
      19    C7      19.049241   17.900634   19.334062 C.3        1 MOL1        -0.2871
      20    H11     19.184039   17.558722   18.299729 H          1 MOL1         0.0754
      21    H12     19.171056   18.990959   19.341606 H          1 MOL1         0.0754
      22    H13     18.020101   17.666451   19.635998 H          1 MOL1         0.0754
@<TRIPOS>BOND
    1     1     2    1
    2     1     3    2
    3     1     4    1
    4     4     5    1
    5     4     6    1
    6     4     7    1
    7     7     8    1
    8     7     9    1
    9     7    10    1
   10    10    11    1
   11    10    12    1
   12    10    13    1
   13    13    14    1
   14    13    15    1
   15    13    16    1
   16    16    17    1
   17    16    18    1
   18    16    19    1
   19    19    20    1
   20    19    21    1
   21    19    22    1
@<TRIPOS>SUBSTRUCTURE
       1 MOL1            1 RESIDUE      1      MOL     
@<SCITEGIC>MOL_PROPERTY
VConf Rank
SciTegic.value.IntegerValue
623

@<SCITEGIC>MOL_PROPERTY
Conf_Id
SciTegic.value.IntegerValue
37

@<SCITEGIC>MOL_PROPERTY
Delta U+W
SciTegic.value.DoubleValue
-0.345

@<SCITEGIC>MOL_PROPERTY
U+W
SciTegic.value.DoubleValue
-53.504

@<SCITEGIC>MOL_PROPERTY
Grad RMS
SciTegic.value.DoubleValue
0.000000

@<SCITEGIC>MOL_PROPERTY
U
SciTegic.value.DoubleValue
6.751

@<SCITEGIC>MOL_PROPERTY
W
SciTegic.value.DoubleValue
-60.255

@<SCITEGIC>MOL_PROPERTY
W(PB)
SciTegic.value.DoubleValue
-62.592

@<SCITEGIC>MOL_PROPERTY
W(SA)
SciTegic.value.DoubleValue
2.336

@<SCITEGIC>MOL_PROPERTY
Valence
SciTegic.value.DoubleValue
7.602

@<SCITEGIC>MOL_PROPERTY
Coulomb
SciTegic.value.DoubleValue
-1.744

@<SCITEGIC>MOL_PROPERTY
VdW
SciTegic.value.DoubleValue
0.894

@<SCITEGIC>MOL_PROPERTY
VdW6
SciTegic.value.DoubleValue
-7.110

@<SCITEGIC>MOL_PROPERTY
VdW12
SciTegic.value.DoubleValue
8.004

@<SCITEGIC>MOL_PROPERTY
Bond
SciTegic.value.DoubleValue
0.131

@<SCITEGIC>MOL_PROPERTY
Angle
SciTegic.value.DoubleValue
2.489

@<SCITEGIC>MOL_PROPERTY
Pdih
SciTegic.value.DoubleValue
4.982

@<SCITEGIC>MOL_PROPERTY
Idih
SciTegic.value.DoubleValue
0.001

@<SCITEGIC>MOL_PROPERTY
Tether
SciTegic.value.DoubleValue
0.000

@<TRIPOS>MOLECULE
guest-s21_confgen4.mol2 : confsearch ligand conformer 624
          22          21           1
SMALL
USER_CHARGES
 
@<TRIPOS>ATOM
       1    C1      19.809164   15.703754   24.276018 C.2        1 MOL1         0.6145
       2    O1      19.531686   14.729422   23.605098 O.co2      1 MOL1        -0.6735
       3    O2      19.609678   15.776021   25.472447 O.co2      1 MOL1        -0.6735
       4    C2      20.421570   16.910580   23.574063 C.3        1 MOL1        -0.1985
       5    H1      21.033319   16.545594   22.740273 H          1 MOL1         0.0740
       6    H2      21.098307   17.407884   24.279301 H          1 MOL1         0.0740
       7    C3      19.357707   17.910896   23.058585 C.3        1 MOL1        -0.1882
       8    H3      18.680848   17.394822   22.363547 H          1 MOL1         0.0742
       9    H4      18.745359   18.256120   23.903192 H          1 MOL1         0.0742
      10    C4      20.002838   19.123124   22.352427 C.3        1 MOL1        -0.1880
      11    H5      20.617539   18.766739   21.515589 H          1 MOL1         0.0742
      12    H6      20.677098   19.638279   23.050170 H          1 MOL1         0.0742
      13    C5      18.936628   20.116663   21.836346 C.3        1 MOL1        -0.1880
      14    H7      18.291799   19.618203   21.099684 H          1 MOL1         0.0742
      15    H8      18.286105   20.408835   22.672044 H          1 MOL1         0.0742
      16    C6      19.539784   21.396929   21.213104 C.3        1 MOL1        -0.1856
      17    H9      20.180431   21.901796   21.949305 H          1 MOL1         0.0742
      18    H10     18.723203   22.094853   20.982167 H          1 MOL1         0.0742
      19    C7      20.343700   21.128336   19.922450 C.3        1 MOL1        -0.2871
      20    H11     19.731936   20.596852   19.181906 H          1 MOL1         0.0754
      21    H12     21.238702   20.527154   20.125565 H          1 MOL1         0.0754
      22    H13     20.673827   22.073494   19.472323 H          1 MOL1         0.0754
@<TRIPOS>BOND
    1     1     2    1
    2     1     3    2
    3     1     4    1
    4     4     5    1
    5     4     6    1
    6     4     7    1
    7     7     8    1
    8     7     9    1
    9     7    10    1
   10    10    11    1
   11    10    12    1
   12    10    13    1
   13    13    14    1
   14    13    15    1
   15    13    16    1
   16    16    17    1
   17    16    18    1
   18    16    19    1
   19    19    20    1
   20    19    21    1
   21    19    22    1
@<TRIPOS>SUBSTRUCTURE
       1 MOL1            1 RESIDUE      1      MOL     
@<SCITEGIC>MOL_PROPERTY
VConf Rank
SciTegic.value.IntegerValue
624

@<SCITEGIC>MOL_PROPERTY
Conf_Id
SciTegic.value.IntegerValue
38

@<SCITEGIC>MOL_PROPERTY
Delta U+W
SciTegic.value.DoubleValue
-0.439

@<SCITEGIC>MOL_PROPERTY
U+W
SciTegic.value.DoubleValue
-53.598

@<SCITEGIC>MOL_PROPERTY
Grad RMS
SciTegic.value.DoubleValue
0.000000

@<SCITEGIC>MOL_PROPERTY
U
SciTegic.value.DoubleValue
6.751

@<SCITEGIC>MOL_PROPERTY
W
SciTegic.value.DoubleValue
-60.350

@<SCITEGIC>MOL_PROPERTY
W(PB)
SciTegic.value.DoubleValue
-62.659

@<SCITEGIC>MOL_PROPERTY
W(SA)
SciTegic.value.DoubleValue
2.309

@<SCITEGIC>MOL_PROPERTY
Valence
SciTegic.value.DoubleValue
7.602

@<SCITEGIC>MOL_PROPERTY
Coulomb
SciTegic.value.DoubleValue
-1.744

@<SCITEGIC>MOL_PROPERTY
VdW
SciTegic.value.DoubleValue
0.893

@<SCITEGIC>MOL_PROPERTY
VdW6
SciTegic.value.DoubleValue
-7.110

@<SCITEGIC>MOL_PROPERTY
VdW12
SciTegic.value.DoubleValue
8.004

@<SCITEGIC>MOL_PROPERTY
Bond
SciTegic.value.DoubleValue
0.131

@<SCITEGIC>MOL_PROPERTY
Angle
SciTegic.value.DoubleValue
2.489

@<SCITEGIC>MOL_PROPERTY
Pdih
SciTegic.value.DoubleValue
4.981

@<SCITEGIC>MOL_PROPERTY
Idih
SciTegic.value.DoubleValue
0.001

@<SCITEGIC>MOL_PROPERTY
Tether
SciTegic.value.DoubleValue
0.000

@<TRIPOS>MOLECULE
guest-s21_confgen4.mol2 : confsearch ligand conformer 625
          22          21           1
SMALL
USER_CHARGES
 
@<TRIPOS>ATOM
       1    C1      19.346643   19.713741   18.560567 C.2        1 MOL1         0.6145
       2    O1      18.848124   18.918881   17.788404 O.co2      1 MOL1        -0.6735
       3    O2      20.046206   20.643535   18.210387 O.co2      1 MOL1        -0.6735
       4    C2      19.099194   19.520331   20.052429 C.3        1 MOL1        -0.1985
       5    H1      18.103346   19.078644   20.177396 H          1 MOL1         0.0740
       6    H2      19.076079   20.512404   20.516883 H          1 MOL1         0.0740
       7    C3      20.170496   18.623946   20.726533 C.3        1 MOL1        -0.1882
       8    H3      20.233219   17.676235   20.173941 H          1 MOL1         0.0742
       9    H4      21.156837   19.099937   20.637897 H          1 MOL1         0.0742
      10    C4      19.872425   18.310535   22.212348 C.3        1 MOL1        -0.1880
      11    H5      20.600450   17.563962   22.554310 H          1 MOL1         0.0742
      12    H6      18.882334   17.842551   22.298247 H          1 MOL1         0.0742
      13    C5      19.943444   19.555823   23.130082 C.3        1 MOL1        -0.1880
      14    H7      20.932989   20.024725   23.042713 H          1 MOL1         0.0742
      15    H8      19.213796   20.302012   22.791119 H          1 MOL1         0.0742
      16    C6      19.649791   19.241319   24.615670 C.3        1 MOL1        -0.1856
      17    H9      18.665441   18.761561   24.706113 H          1 MOL1         0.0742
      18    H10     19.584885   20.188360   25.168974 H          1 MOL1         0.0742
      19    C7      20.724597   18.353383   25.279760 C.3        1 MOL1        -0.2871
      20    H11     20.743963   17.348742   24.839596 H          1 MOL1         0.0754
      21    H12     20.519854   18.241166   26.352330 H          1 MOL1         0.0754
      22    H13     21.722845   18.797045   25.171175 H          1 MOL1         0.0754
@<TRIPOS>BOND
    1     1     2    1
    2     1     3    2
    3     1     4    1
    4     4     5    1
    5     4     6    1
    6     4     7    1
    7     7     8    1
    8     7     9    1
    9     7    10    1
   10    10    11    1
   11    10    12    1
   12    10    13    1
   13    13    14    1
   14    13    15    1
   15    13    16    1
   16    16    17    1
   17    16    18    1
   18    16    19    1
   19    19    20    1
   20    19    21    1
   21    19    22    1
@<TRIPOS>SUBSTRUCTURE
       1 MOL1            1 RESIDUE      1      MOL     
@<SCITEGIC>MOL_PROPERTY
VConf Rank
SciTegic.value.IntegerValue
625

@<SCITEGIC>MOL_PROPERTY
Conf_Id
SciTegic.value.IntegerValue
60

@<SCITEGIC>MOL_PROPERTY
Delta U+W
SciTegic.value.DoubleValue
0.386

@<SCITEGIC>MOL_PROPERTY
U+W
SciTegic.value.DoubleValue
-52.773

@<SCITEGIC>MOL_PROPERTY
Grad RMS
SciTegic.value.DoubleValue
0.000000

@<SCITEGIC>MOL_PROPERTY
U
SciTegic.value.DoubleValue
7.689

@<SCITEGIC>MOL_PROPERTY
W
SciTegic.value.DoubleValue
-60.463

@<SCITEGIC>MOL_PROPERTY
W(PB)
SciTegic.value.DoubleValue
-62.772

@<SCITEGIC>MOL_PROPERTY
W(SA)
SciTegic.value.DoubleValue
2.309

@<SCITEGIC>MOL_PROPERTY
Valence
SciTegic.value.DoubleValue
8.197

@<SCITEGIC>MOL_PROPERTY
Coulomb
SciTegic.value.DoubleValue
-1.561

@<SCITEGIC>MOL_PROPERTY
VdW
SciTegic.value.DoubleValue
1.053

@<SCITEGIC>MOL_PROPERTY
VdW6
SciTegic.value.DoubleValue
-7.737

@<SCITEGIC>MOL_PROPERTY
VdW12
SciTegic.value.DoubleValue
8.790

@<SCITEGIC>MOL_PROPERTY
Bond
SciTegic.value.DoubleValue
0.181

@<SCITEGIC>MOL_PROPERTY
Angle
SciTegic.value.DoubleValue
2.780

@<SCITEGIC>MOL_PROPERTY
Pdih
SciTegic.value.DoubleValue
5.235

@<SCITEGIC>MOL_PROPERTY
Idih
SciTegic.value.DoubleValue
0.001

@<SCITEGIC>MOL_PROPERTY
Tether
SciTegic.value.DoubleValue
0.000

@<TRIPOS>MOLECULE
guest-s21_confgen4.mol2 : confsearch ligand conformer 626
          22          21           1
SMALL
USER_CHARGES
 
@<TRIPOS>ATOM
       1    C1      21.340364   15.955964   20.468852 C.2        1 MOL1         0.6145
       2    O1      21.296913   16.119380   19.265548 O.co2      1 MOL1        -0.6735
       3    O2      21.497072   14.872053   20.995292 O.co2      1 MOL1        -0.6735
       4    C2      21.166063   17.174667   21.368112 C.3        1 MOL1        -0.1985
       5    H1      21.605604   18.034859   20.851067 H          1 MOL1         0.0740
       6    H2      21.750417   17.009751   22.281210 H          1 MOL1         0.0740
       7    C3      19.681814   17.448985   21.725001 C.3        1 MOL1        -0.1882
       8    H3      19.116138   17.661094   20.807223 H          1 MOL1         0.0742
       9    H4      19.248471   16.533590   22.151278 H          1 MOL1         0.0742
      10    C4      19.489601   18.604000   22.736789 C.3        1 MOL1        -0.1880
      11    H5      20.062866   18.392701   23.649689 H          1 MOL1         0.0742
      12    H6      18.432511   18.625126   23.030800 H          1 MOL1         0.0742
      13    C5      19.894457   19.988706   22.174028 C.3        1 MOL1        -0.1880
      14    H7      20.952173   19.969964   21.882542 H          1 MOL1         0.0742
      15    H8      19.322482   20.199042   21.260077 H          1 MOL1         0.0742
      16    C6      19.697895   21.143372   23.184089 C.3        1 MOL1        -0.1856
      17    H9      20.132792   22.058894   22.759908 H          1 MOL1         0.0742
      18    H10     20.259369   20.931245   24.104438 H          1 MOL1         0.0742
      19    C7      18.216870   21.413034   23.528329 C.3        1 MOL1        -0.2871
      20    H11     17.628709   21.593781   22.619197 H          1 MOL1         0.0754
      21    H12     18.127714   22.299251   24.169881 H          1 MOL1         0.0754
      22    H13     17.769160   20.568423   24.066486 H          1 MOL1         0.0754
@<TRIPOS>BOND
    1     1     2    1
    2     1     3    2
    3     1     4    1
    4     4     5    1
    5     4     6    1
    6     4     7    1
    7     7     8    1
    8     7     9    1
    9     7    10    1
   10    10    11    1
   11    10    12    1
   12    10    13    1
   13    13    14    1
   14    13    15    1
   15    13    16    1
   16    16    17    1
   17    16    18    1
   18    16    19    1
   19    19    20    1
   20    19    21    1
   21    19    22    1
@<TRIPOS>SUBSTRUCTURE
       1 MOL1            1 RESIDUE      1      MOL     
@<SCITEGIC>MOL_PROPERTY
VConf Rank
SciTegic.value.IntegerValue
626

@<SCITEGIC>MOL_PROPERTY
Conf_Id
SciTegic.value.IntegerValue
28

@<SCITEGIC>MOL_PROPERTY
Delta U+W
SciTegic.value.DoubleValue
0.351

@<SCITEGIC>MOL_PROPERTY
U+W
SciTegic.value.DoubleValue
-52.808

@<SCITEGIC>MOL_PROPERTY
Grad RMS
SciTegic.value.DoubleValue
0.000000

@<SCITEGIC>MOL_PROPERTY
U
SciTegic.value.DoubleValue
7.689

@<SCITEGIC>MOL_PROPERTY
W
SciTegic.value.DoubleValue
-60.498

@<SCITEGIC>MOL_PROPERTY
W(PB)
SciTegic.value.DoubleValue
-62.768

@<SCITEGIC>MOL_PROPERTY
W(SA)
SciTegic.value.DoubleValue
2.270

@<SCITEGIC>MOL_PROPERTY
Valence
SciTegic.value.DoubleValue
8.197

@<SCITEGIC>MOL_PROPERTY
Coulomb
SciTegic.value.DoubleValue
-1.561

@<SCITEGIC>MOL_PROPERTY
VdW
SciTegic.value.DoubleValue
1.053

@<SCITEGIC>MOL_PROPERTY
VdW6
SciTegic.value.DoubleValue
-7.737

@<SCITEGIC>MOL_PROPERTY
VdW12
SciTegic.value.DoubleValue
8.791

@<SCITEGIC>MOL_PROPERTY
Bond
SciTegic.value.DoubleValue
0.181

@<SCITEGIC>MOL_PROPERTY
Angle
SciTegic.value.DoubleValue
2.780

@<SCITEGIC>MOL_PROPERTY
Pdih
SciTegic.value.DoubleValue
5.235

@<SCITEGIC>MOL_PROPERTY
Idih
SciTegic.value.DoubleValue
0.001

@<SCITEGIC>MOL_PROPERTY
Tether
SciTegic.value.DoubleValue
0.000

@<TRIPOS>MOLECULE
guest-s21_confgen4.mol2 : confsearch ligand conformer 627
          22          21           1
SMALL
USER_CHARGES
 
@<TRIPOS>ATOM
       1    C1      19.483650   22.594281   22.520458 C.2        1 MOL1         0.6145
       2    O1      18.820793   23.131717   21.655441 O.co2      1 MOL1        -0.6735
       3    O2      19.403796   22.873264   23.700393 O.co2      1 MOL1        -0.6735
       4    C2      20.454941   21.495199   22.104605 C.3        1 MOL1        -0.1985
       5    H1      21.311608   21.520649   22.788801 H          1 MOL1         0.0740
       6    H2      20.832271   21.735233   21.103294 H          1 MOL1         0.0740
       7    C3      19.808909   20.087755   22.110066 C.3        1 MOL1        -0.1882
       8    H3      19.421654   19.879362   23.116085 H          1 MOL1         0.0742
       9    H4      18.947983   20.081265   21.427374 H          1 MOL1         0.0742
      10    C4      20.816554   18.992852   21.689470 C.3        1 MOL1        -0.1880
      11    H5      21.651799   18.963898   22.402573 H          1 MOL1         0.0742
      12    H6      21.248547   19.260578   20.715474 H          1 MOL1         0.0742
      13    C5      20.184866   17.585253   21.574604 C.3        1 MOL1        -0.1880
      14    H7      19.352149   17.612847   20.858537 H          1 MOL1         0.0742
      15    H8      20.934017   16.901015   21.153273 H          1 MOL1         0.0742
      16    C6      19.691946   17.018571   22.925231 C.3        1 MOL1        -0.1856
      17    H9      18.885822   17.646065   23.327445 H          1 MOL1         0.0742
      18    H10     20.511015   17.039951   23.657267 H          1 MOL1         0.0742
      19    C7      19.175347   15.573273   22.777070 C.3        1 MOL1        -0.2871
      20    H11     19.968502   14.907493   22.412381 H          1 MOL1         0.0754
      21    H12     18.336560   15.526922   22.070195 H          1 MOL1         0.0754
      22    H13     18.826166   15.186447   23.743252 H          1 MOL1         0.0754
@<TRIPOS>BOND
    1     1     2    1
    2     1     3    2
    3     1     4    1
    4     4     5    1
    5     4     6    1
    6     4     7    1
    7     7     8    1
    8     7     9    1
    9     7    10    1
   10    10    11    1
   11    10    12    1
   12    10    13    1
   13    13    14    1
   14    13    15    1
   15    13    16    1
   16    16    17    1
   17    16    18    1
   18    16    19    1
   19    19    20    1
   20    19    21    1
   21    19    22    1
@<TRIPOS>SUBSTRUCTURE
       1 MOL1            1 RESIDUE      1      MOL     
@<SCITEGIC>MOL_PROPERTY
VConf Rank
SciTegic.value.IntegerValue
627

@<SCITEGIC>MOL_PROPERTY
Conf_Id
SciTegic.value.IntegerValue
50

@<SCITEGIC>MOL_PROPERTY
Delta U+W
SciTegic.value.DoubleValue
-0.486

@<SCITEGIC>MOL_PROPERTY
U+W
SciTegic.value.DoubleValue
-53.646

@<SCITEGIC>MOL_PROPERTY
Grad RMS
SciTegic.value.DoubleValue
0.000000

@<SCITEGIC>MOL_PROPERTY
U
SciTegic.value.DoubleValue
7.026

@<SCITEGIC>MOL_PROPERTY
W
SciTegic.value.DoubleValue
-60.672

@<SCITEGIC>MOL_PROPERTY
W(PB)
SciTegic.value.DoubleValue
-62.964

@<SCITEGIC>MOL_PROPERTY
W(SA)
SciTegic.value.DoubleValue
2.292

@<SCITEGIC>MOL_PROPERTY
Valence
SciTegic.value.DoubleValue
7.637

@<SCITEGIC>MOL_PROPERTY
Coulomb
SciTegic.value.DoubleValue
-1.488

@<SCITEGIC>MOL_PROPERTY
VdW
SciTegic.value.DoubleValue
0.877

@<SCITEGIC>MOL_PROPERTY
VdW6
SciTegic.value.DoubleValue
-7.165

@<SCITEGIC>MOL_PROPERTY
VdW12
SciTegic.value.DoubleValue
8.043

@<SCITEGIC>MOL_PROPERTY
Bond
SciTegic.value.DoubleValue
0.134

@<SCITEGIC>MOL_PROPERTY
Angle
SciTegic.value.DoubleValue
2.513

@<SCITEGIC>MOL_PROPERTY
Pdih
SciTegic.value.DoubleValue
4.990

@<SCITEGIC>MOL_PROPERTY
Idih
SciTegic.value.DoubleValue
0.001

@<SCITEGIC>MOL_PROPERTY
Tether
SciTegic.value.DoubleValue
0.000

@<TRIPOS>MOLECULE
guest-s21_confgen4.mol2 : confsearch ligand conformer 628
          22          21           1
SMALL
USER_CHARGES
 
@<TRIPOS>ATOM
       1    C1      19.907668   19.374099   18.544365 C.2        1 MOL1         0.6145
       2    O1      20.926448   19.849144   18.082965 O.co2      1 MOL1        -0.6735
       3    O2      18.793708   19.662327   18.153886 O.co2      1 MOL1        -0.6735
       4    C2      20.033197   18.376557   19.690437 C.3        1 MOL1        -0.1985
       5    H1      20.963922   17.813519   19.551321 H          1 MOL1         0.0740
       6    H2      19.206143   17.660755   19.611335 H          1 MOL1         0.0740
       7    C3      20.020889   19.054924   21.082545 C.3        1 MOL1        -0.1882
       8    H3      20.848899   19.774719   21.142526 H          1 MOL1         0.0742
       9    H4      19.090215   19.627497   21.189665 H          1 MOL1         0.0742
      10    C4      20.144893   18.020643   22.225329 C.3        1 MOL1        -0.1880
      11    H5      21.041330   17.408321   22.056734 H          1 MOL1         0.0742
      12    H6      19.288781   17.332691   22.197366 H          1 MOL1         0.0742
      13    C5      20.247481   18.662670   23.629195 C.3        1 MOL1        -0.1880
      14    H7      20.457823   17.869725   24.359894 H          1 MOL1         0.0742
      15    H8      21.105841   19.347706   23.658804 H          1 MOL1         0.0742
      16    C6      18.966815   19.413326   24.058962 C.3        1 MOL1        -0.1856
      17    H9      18.099820   18.743169   23.978871 H          1 MOL1         0.0742
      18    H10     18.780678   20.260459   23.385851 H          1 MOL1         0.0742
      19    C7      19.077057   19.937212   25.505028 C.3        1 MOL1        -0.2871
      20    H11     19.920843   20.632153   25.607341 H          1 MOL1         0.0754
      21    H12     19.225458   19.110898   26.212516 H          1 MOL1         0.0754
      22    H13     18.161957   20.470242   25.794060 H          1 MOL1         0.0754
@<TRIPOS>BOND
    1     1     2    1
    2     1     3    2
    3     1     4    1
    4     4     5    1
    5     4     6    1
    6     4     7    1
    7     7     8    1
    8     7     9    1
    9     7    10    1
   10    10    11    1
   11    10    12    1
   12    10    13    1
   13    13    14    1
   14    13    15    1
   15    13    16    1
   16    16    17    1
   17    16    18    1
   18    16    19    1
   19    19    20    1
   20    19    21    1
   21    19    22    1
@<TRIPOS>SUBSTRUCTURE
       1 MOL1            1 RESIDUE      1      MOL     
@<SCITEGIC>MOL_PROPERTY
VConf Rank
SciTegic.value.IntegerValue
628

@<SCITEGIC>MOL_PROPERTY
Conf_Id
SciTegic.value.IntegerValue
51

@<SCITEGIC>MOL_PROPERTY
Delta U+W
SciTegic.value.DoubleValue
-0.517

@<SCITEGIC>MOL_PROPERTY
U+W
SciTegic.value.DoubleValue
-53.677

@<SCITEGIC>MOL_PROPERTY
Grad RMS
SciTegic.value.DoubleValue
0.000000

@<SCITEGIC>MOL_PROPERTY
U
SciTegic.value.DoubleValue
7.026

@<SCITEGIC>MOL_PROPERTY
W
SciTegic.value.DoubleValue
-60.703

@<SCITEGIC>MOL_PROPERTY
W(PB)
SciTegic.value.DoubleValue
-63.007

@<SCITEGIC>MOL_PROPERTY
W(SA)
SciTegic.value.DoubleValue
2.304

@<SCITEGIC>MOL_PROPERTY
Valence
SciTegic.value.DoubleValue
7.638

@<SCITEGIC>MOL_PROPERTY
Coulomb
SciTegic.value.DoubleValue
-1.488

@<SCITEGIC>MOL_PROPERTY
VdW
SciTegic.value.DoubleValue
0.877

@<SCITEGIC>MOL_PROPERTY
VdW6
SciTegic.value.DoubleValue
-7.165

@<SCITEGIC>MOL_PROPERTY
VdW12
SciTegic.value.DoubleValue
8.042

@<SCITEGIC>MOL_PROPERTY
Bond
SciTegic.value.DoubleValue
0.134

@<SCITEGIC>MOL_PROPERTY
Angle
SciTegic.value.DoubleValue
2.513

@<SCITEGIC>MOL_PROPERTY
Pdih
SciTegic.value.DoubleValue
4.990

@<SCITEGIC>MOL_PROPERTY
Idih
SciTegic.value.DoubleValue
0.001

@<SCITEGIC>MOL_PROPERTY
Tether
SciTegic.value.DoubleValue
0.000

@<TRIPOS>MOLECULE
guest-s21_confgen4.mol2 : confsearch ligand conformer 629
          22          21           1
SMALL
USER_CHARGES
 
@<TRIPOS>ATOM
       1    C1      18.455510   20.364949   19.619447 C.2        1 MOL1         0.6145
       2    O1      17.294609   20.034492   19.477999 O.co2      1 MOL1        -0.6735
       3    O2      18.808711   21.509881   19.822355 O.co2      1 MOL1        -0.6735
       4    C2      19.528201   19.284181   19.517430 C.3        1 MOL1        -0.1985
       5    H1      20.493652   19.766351   19.321668 H          1 MOL1         0.0740
       6    H2      19.294838   18.672532   18.637960 H          1 MOL1         0.0740
       7    C3      19.628045   18.374394   20.769353 C.3        1 MOL1        -0.1882
       8    H3      18.647092   17.921012   20.968925 H          1 MOL1         0.0742
       9    H4      20.320323   17.548787   20.555653 H          1 MOL1         0.0742
      10    C4      20.116320   19.137523   22.021075 C.3        1 MOL1        -0.1880
      11    H5      19.419167   19.955007   22.251520 H          1 MOL1         0.0742
      12    H6      21.090863   19.599707   21.812109 H          1 MOL1         0.0742
      13    C5      20.238373   18.206723   23.246704 C.3        1 MOL1        -0.1880
      14    H7      19.263448   17.744962   23.455044 H          1 MOL1         0.0742
      15    H8      20.937251   17.389950   23.019745 H          1 MOL1         0.0742
      16    C6      20.725199   18.968283   24.497332 C.3        1 MOL1        -0.1856
      17    H9      20.027459   19.785119   24.728503 H          1 MOL1         0.0742
      18    H10     21.701118   19.430222   24.293230 H          1 MOL1         0.0742
      19    C7      20.845249   18.035731   25.719334 C.3        1 MOL1        -0.2871
      20    H11     19.875331   17.583942   25.965396 H          1 MOL1         0.0754
      21    H12     21.192272   18.593381   26.598929 H          1 MOL1         0.0754
      22    H13     21.561600   17.226297   25.526840 H          1 MOL1         0.0754
@<TRIPOS>BOND
    1     1     2    1
    2     1     3    2
    3     1     4    1
    4     4     5    1
    5     4     6    1
    6     4     7    1
    7     7     8    1
    8     7     9    1
    9     7    10    1
   10    10    11    1
   11    10    12    1
   12    10    13    1
   13    13    14    1
   14    13    15    1
   15    13    16    1
   16    16    17    1
   17    16    18    1
   18    16    19    1
   19    19    20    1
   20    19    21    1
   21    19    22    1
@<TRIPOS>SUBSTRUCTURE
       1 MOL1            1 RESIDUE      1      MOL     
@<SCITEGIC>MOL_PROPERTY
VConf Rank
SciTegic.value.IntegerValue
629

@<SCITEGIC>MOL_PROPERTY
Conf_Id
SciTegic.value.IntegerValue
43

@<SCITEGIC>MOL_PROPERTY
Delta U+W
SciTegic.value.DoubleValue
-0.129

@<SCITEGIC>MOL_PROPERTY
U+W
SciTegic.value.DoubleValue
-53.289

@<SCITEGIC>MOL_PROPERTY
Grad RMS
SciTegic.value.DoubleValue
0.000000

@<SCITEGIC>MOL_PROPERTY
U
SciTegic.value.DoubleValue
7.937

@<SCITEGIC>MOL_PROPERTY
W
SciTegic.value.DoubleValue
-61.225

@<SCITEGIC>MOL_PROPERTY
W(PB)
SciTegic.value.DoubleValue
-63.523

@<SCITEGIC>MOL_PROPERTY
W(SA)
SciTegic.value.DoubleValue
2.297

@<SCITEGIC>MOL_PROPERTY
Valence
SciTegic.value.DoubleValue
7.358

@<SCITEGIC>MOL_PROPERTY
Coulomb
SciTegic.value.DoubleValue
-0.022

@<SCITEGIC>MOL_PROPERTY
VdW
SciTegic.value.DoubleValue
0.601

@<SCITEGIC>MOL_PROPERTY
VdW6
SciTegic.value.DoubleValue
-7.363

@<SCITEGIC>MOL_PROPERTY
VdW12
SciTegic.value.DoubleValue
7.964

@<SCITEGIC>MOL_PROPERTY
Bond
SciTegic.value.DoubleValue
0.121

@<SCITEGIC>MOL_PROPERTY
Angle
SciTegic.value.DoubleValue
2.425

@<SCITEGIC>MOL_PROPERTY
Pdih
SciTegic.value.DoubleValue
4.811

@<SCITEGIC>MOL_PROPERTY
Idih
SciTegic.value.DoubleValue
0.000

@<SCITEGIC>MOL_PROPERTY
Tether
SciTegic.value.DoubleValue
0.000

@<TRIPOS>MOLECULE
guest-s21_confgen4.mol2 : confsearch ligand conformer 630
          22          21           1
SMALL
USER_CHARGES
 
@<TRIPOS>ATOM
       1    C1      20.059223   15.775574   23.355370 C.2        1 MOL1         0.6145
       2    O1      19.049249   15.116770   23.204271 O.co2      1 MOL1        -0.6735
       3    O2      20.576419   15.974909   24.436835 O.co2      1 MOL1        -0.6735
       4    C2      20.722859   16.368738   22.115663 C.3        1 MOL1        -0.1985
       5    H1      20.759439   15.580543   21.354445 H          1 MOL1         0.0740
       6    H2      21.761506   16.621235   22.361348 H          1 MOL1         0.0740
       7    C3      19.991469   17.609833   21.541423 C.3        1 MOL1        -0.1882
       8    H3      20.452375   17.883127   20.582561 H          1 MOL1         0.0742
       9    H4      18.945746   17.348999   21.326757 H          1 MOL1         0.0742
      10    C4      20.042720   18.824082   22.495656 C.3        1 MOL1        -0.1880
      11    H5      21.089663   19.072517   22.717477 H          1 MOL1         0.0742
      12    H6      19.567874   18.563736   23.451767 H          1 MOL1         0.0742
      13    C5      19.336423   20.056580   21.891050 C.3        1 MOL1        -0.1880
      14    H7      19.811331   20.320672   20.936180 H          1 MOL1         0.0742
      15    H8      18.289551   19.807364   21.669556 H          1 MOL1         0.0742
      16    C6      19.386526   21.269378   22.843762 C.3        1 MOL1        -0.1856
      17    H9      20.432360   21.522687   23.066315 H          1 MOL1         0.0742
      18    H10     18.910673   21.009455   23.799538 H          1 MOL1         0.0742
      19    C7      18.679722   22.498011   22.236929 C.3        1 MOL1        -0.2871
      20    H11     19.155775   22.799372   21.294617 H          1 MOL1         0.0754
      21    H12     18.724847   23.350395   22.927212 H          1 MOL1         0.0754
      22    H13     17.622635   22.282258   22.033414 H          1 MOL1         0.0754
@<TRIPOS>BOND
    1     1     2    1
    2     1     3    2
    3     1     4    1
    4     4     5    1
    5     4     6    1
    6     4     7    1
    7     7     8    1
    8     7     9    1
    9     7    10    1
   10    10    11    1
   11    10    12    1
   12    10    13    1
   13    13    14    1
   14    13    15    1
   15    13    16    1
   16    16    17    1
   17    16    18    1
   18    16    19    1
   19    19    20    1
   20    19    21    1
   21    19    22    1
@<TRIPOS>SUBSTRUCTURE
       1 MOL1            1 RESIDUE      1      MOL     
@<SCITEGIC>MOL_PROPERTY
VConf Rank
SciTegic.value.IntegerValue
630

@<SCITEGIC>MOL_PROPERTY
Conf_Id
SciTegic.value.IntegerValue
44

@<SCITEGIC>MOL_PROPERTY
Delta U+W
SciTegic.value.DoubleValue
-0.155

@<SCITEGIC>MOL_PROPERTY
U+W
SciTegic.value.DoubleValue
-53.314

@<SCITEGIC>MOL_PROPERTY
Grad RMS
SciTegic.value.DoubleValue
0.000000

@<SCITEGIC>MOL_PROPERTY
U
SciTegic.value.DoubleValue
7.937

@<SCITEGIC>MOL_PROPERTY
W
SciTegic.value.DoubleValue
-61.252

@<SCITEGIC>MOL_PROPERTY
W(PB)
SciTegic.value.DoubleValue
-63.556

@<SCITEGIC>MOL_PROPERTY
W(SA)
SciTegic.value.DoubleValue
2.304

@<SCITEGIC>MOL_PROPERTY
Valence
SciTegic.value.DoubleValue
7.358

@<SCITEGIC>MOL_PROPERTY
Coulomb
SciTegic.value.DoubleValue
-0.021

@<SCITEGIC>MOL_PROPERTY
VdW
SciTegic.value.DoubleValue
0.600

@<SCITEGIC>MOL_PROPERTY
VdW6
SciTegic.value.DoubleValue
-7.363

@<SCITEGIC>MOL_PROPERTY
VdW12
SciTegic.value.DoubleValue
7.964

@<SCITEGIC>MOL_PROPERTY
Bond
SciTegic.value.DoubleValue
0.121

@<SCITEGIC>MOL_PROPERTY
Angle
SciTegic.value.DoubleValue
2.425

@<SCITEGIC>MOL_PROPERTY
Pdih
SciTegic.value.DoubleValue
4.811

@<SCITEGIC>MOL_PROPERTY
Idih
SciTegic.value.DoubleValue
0.001

@<SCITEGIC>MOL_PROPERTY
Tether
SciTegic.value.DoubleValue
0.000

@<TRIPOS>MOLECULE
guest-s21_confgen4.mol2 : confsearch ligand conformer 631
          22          21           1
SMALL
USER_CHARGES
 
@<TRIPOS>ATOM
       1    C1      23.019962   18.454817   21.099873 C.2        1 MOL1         0.6145
       2    O1      23.816797   18.345888   22.010977 O.co2      1 MOL1        -0.6735
       3    O2      23.187604   19.186488   20.144142 O.co2      1 MOL1        -0.6735
       4    C2      21.748973   17.611461   21.151320 C.3        1 MOL1        -0.1985
       5    H1      22.044101   16.591779   21.425507 H          1 MOL1         0.0740
       6    H2      21.322567   17.557926   20.142260 H          1 MOL1         0.0740
       7    C3      20.685966   18.129789   22.154803 C.3        1 MOL1        -0.1882
       8    H3      19.887650   17.380934   22.232734 H          1 MOL1         0.0742
       9    H4      21.138902   18.216311   23.152182 H          1 MOL1         0.0742
      10    C4      20.084213   19.491466   21.731789 C.3        1 MOL1        -0.1880
      11    H5      19.594961   19.392604   20.753188 H          1 MOL1         0.0742
      12    H6      20.896761   20.218851   21.598863 H          1 MOL1         0.0742
      13    C5      19.079707   20.067326   22.758034 C.3        1 MOL1        -0.1880
      14    H7      19.569332   20.165812   23.736546 H          1 MOL1         0.0742
      15    H8      18.806794   21.084065   22.443927 H          1 MOL1         0.0742
      16    C6      17.791900   19.225105   22.901703 C.3        1 MOL1        -0.1856
      17    H9      18.033062   18.227912   23.292424 H          1 MOL1         0.0742
      18    H10     17.331491   19.080585   21.914620 H          1 MOL1         0.0742
      19    C7      16.777121   19.900793   23.845847 C.3        1 MOL1        -0.2871
      20    H11     17.202598   20.033134   24.849261 H          1 MOL1         0.0754
      21    H12     15.870175   19.289545   23.940124 H          1 MOL1         0.0754
      22    H13     16.482421   20.887561   23.465322 H          1 MOL1         0.0754
@<TRIPOS>BOND
    1     1     2    1
    2     1     3    2
    3     1     4    1
    4     4     5    1
    5     4     6    1
    6     4     7    1
    7     7     8    1
    8     7     9    1
    9     7    10    1
   10    10    11    1
   11    10    12    1
   12    10    13    1
   13    13    14    1
   14    13    15    1
   15    13    16    1
   16    16    17    1
   17    16    18    1
   18    16    19    1
   19    19    20    1
   20    19    21    1
   21    19    22    1
@<TRIPOS>SUBSTRUCTURE
       1 MOL1            1 RESIDUE      1      MOL     
@<SCITEGIC>MOL_PROPERTY
VConf Rank
SciTegic.value.IntegerValue
631

@<SCITEGIC>MOL_PROPERTY
Conf_Id
SciTegic.value.IntegerValue
53

@<SCITEGIC>MOL_PROPERTY
Delta U+W
SciTegic.value.DoubleValue
0.723

@<SCITEGIC>MOL_PROPERTY
U+W
SciTegic.value.DoubleValue
-52.436

@<SCITEGIC>MOL_PROPERTY
Grad RMS
SciTegic.value.DoubleValue
0.000000

@<SCITEGIC>MOL_PROPERTY
U
SciTegic.value.DoubleValue
8.587

@<SCITEGIC>MOL_PROPERTY
W
SciTegic.value.DoubleValue
-61.022

@<SCITEGIC>MOL_PROPERTY
W(PB)
SciTegic.value.DoubleValue
-63.285

@<SCITEGIC>MOL_PROPERTY
W(SA)
SciTegic.value.DoubleValue
2.263

@<SCITEGIC>MOL_PROPERTY
Valence
SciTegic.value.DoubleValue
7.933

@<SCITEGIC>MOL_PROPERTY
Coulomb
SciTegic.value.DoubleValue
-0.124

@<SCITEGIC>MOL_PROPERTY
VdW
SciTegic.value.DoubleValue
0.778

@<SCITEGIC>MOL_PROPERTY
VdW6
SciTegic.value.DoubleValue
-7.981

@<SCITEGIC>MOL_PROPERTY
VdW12
SciTegic.value.DoubleValue
8.759

@<SCITEGIC>MOL_PROPERTY
Bond
SciTegic.value.DoubleValue
0.160

@<SCITEGIC>MOL_PROPERTY
Angle
SciTegic.value.DoubleValue
2.698

@<SCITEGIC>MOL_PROPERTY
Pdih
SciTegic.value.DoubleValue
5.074

@<SCITEGIC>MOL_PROPERTY
Idih
SciTegic.value.DoubleValue
0.001

@<SCITEGIC>MOL_PROPERTY
Tether
SciTegic.value.DoubleValue
0.000

@<TRIPOS>MOLECULE
guest-s21_confgen4.mol2 : confsearch ligand conformer 632
          22          21           1
SMALL
USER_CHARGES
 
@<TRIPOS>ATOM
       1    C1      18.710457   17.253320   25.007146 C.2        1 MOL1         0.6145
       2    O1      17.633142   17.688459   25.362978 O.co2      1 MOL1        -0.6735
       3    O2      19.247403   16.288928   25.515298 O.co2      1 MOL1        -0.6735
       4    C2      19.417177   17.941322   23.844735 C.3        1 MOL1        -0.1985
       5    H1      20.498549   17.837070   23.993220 H          1 MOL1         0.0740
       6    H2      19.177557   19.009307   23.896884 H          1 MOL1         0.0740
       7    C3      19.006907   17.364062   22.466481 C.3        1 MOL1        -0.1882
       8    H3      19.129655   16.272399   22.491522 H          1 MOL1         0.0742
       9    H4      17.936499   17.549141   22.301479 H          1 MOL1         0.0742
      10    C4      19.820671   17.922590   21.272119 C.3        1 MOL1        -0.1880
      11    H5      19.474001   17.406927   20.366106 H          1 MOL1         0.0742
      12    H6      20.880864   17.655530   21.379934 H          1 MOL1         0.0742
      13    C5      19.670904   19.448404   21.045913 C.3        1 MOL1        -0.1880
      14    H7      19.675022   19.641916   19.964466 H          1 MOL1         0.0742
      15    H8      18.693764   19.790415   21.413594 H          1 MOL1         0.0742
      16    C6      20.807952   20.277621   21.686440 C.3        1 MOL1        -0.1856
      17    H9      21.773349   19.963353   21.266394 H          1 MOL1         0.0742
      18    H10     20.860424   20.092361   22.765927 H          1 MOL1         0.0742
      19    C7      20.613885   21.787386   21.440922 C.3        1 MOL1        -0.2871
      20    H11     20.597898   22.012147   20.366418 H          1 MOL1         0.0754
      21    H12     21.431888   22.361466   21.895165 H          1 MOL1         0.0754
      22    H13     19.670019   22.137745   21.878785 H          1 MOL1         0.0754
@<TRIPOS>BOND
    1     1     2    1
    2     1     3    2
    3     1     4    1
    4     4     5    1
    5     4     6    1
    6     4     7    1
    7     7     8    1
    8     7     9    1
    9     7    10    1
   10    10    11    1
   11    10    12    1
   12    10    13    1
   13    13    14    1
   14    13    15    1
   15    13    16    1
   16    16    17    1
   17    16    18    1
   18    16    19    1
   19    19    20    1
   20    19    21    1
   21    19    22    1
@<TRIPOS>SUBSTRUCTURE
       1 MOL1            1 RESIDUE      1      MOL     
@<SCITEGIC>MOL_PROPERTY
VConf Rank
SciTegic.value.IntegerValue
632

@<SCITEGIC>MOL_PROPERTY
Conf_Id
SciTegic.value.IntegerValue
5

@<SCITEGIC>MOL_PROPERTY
Delta U+W
SciTegic.value.DoubleValue
2.167

@<SCITEGIC>MOL_PROPERTY
U+W
SciTegic.value.DoubleValue
-50.993

@<SCITEGIC>MOL_PROPERTY
Grad RMS
SciTegic.value.DoubleValue
0.000000

@<SCITEGIC>MOL_PROPERTY
U
SciTegic.value.DoubleValue
10.045

@<SCITEGIC>MOL_PROPERTY
W
SciTegic.value.DoubleValue
-61.037

@<SCITEGIC>MOL_PROPERTY
W(PB)
SciTegic.value.DoubleValue
-63.303

@<SCITEGIC>MOL_PROPERTY
W(SA)
SciTegic.value.DoubleValue
2.266

@<SCITEGIC>MOL_PROPERTY
Valence
SciTegic.value.DoubleValue
10.100

@<SCITEGIC>MOL_PROPERTY
Coulomb
SciTegic.value.DoubleValue
-0.883

@<SCITEGIC>MOL_PROPERTY
VdW
SciTegic.value.DoubleValue
0.828

@<SCITEGIC>MOL_PROPERTY
VdW6
SciTegic.value.DoubleValue
-8.177

@<SCITEGIC>MOL_PROPERTY
VdW12
SciTegic.value.DoubleValue
9.005

@<SCITEGIC>MOL_PROPERTY
Bond
SciTegic.value.DoubleValue
0.182

@<SCITEGIC>MOL_PROPERTY
Angle
SciTegic.value.DoubleValue
2.988

@<SCITEGIC>MOL_PROPERTY
Pdih
SciTegic.value.DoubleValue
6.930

@<SCITEGIC>MOL_PROPERTY
Idih
SciTegic.value.DoubleValue
0.001

@<SCITEGIC>MOL_PROPERTY
Tether
SciTegic.value.DoubleValue
0.000

@<TRIPOS>MOLECULE
guest-s21_confgen4.mol2 : confsearch ligand conformer 633
          22          21           1
SMALL
USER_CHARGES
 
@<TRIPOS>ATOM
       1    C1      17.476431   18.112374   20.155026 C.2        1 MOL1         0.6145
       2    O1      17.055142   17.001918   20.411880 O.co2      1 MOL1        -0.6735
       3    O2      17.113717   18.764075   19.195699 O.co2      1 MOL1        -0.6735
       4    C2      18.534950   18.711823   21.073829 C.3        1 MOL1        -0.1985
       5    H1      18.330656   18.356858   22.090193 H          1 MOL1         0.0740
       6    H2      18.410415   19.801212   21.072391 H          1 MOL1         0.0740
       7    C3      19.978001   18.336366   20.652194 C.3        1 MOL1        -0.1882
       8    H3      20.107557   17.248560   20.736740 H          1 MOL1         0.0742
       9    H4      20.108380   18.579543   19.588573 H          1 MOL1         0.0742
      10    C4      21.087208   19.055817   21.460104 C.3        1 MOL1        -0.1880
      11    H5      21.025801   20.141219   21.301718 H          1 MOL1         0.0742
      12    H6      22.054511   18.747549   21.040291 H          1 MOL1         0.0742
      13    C5      21.094415   18.733238   22.975888 C.3        1 MOL1        -0.1880
      14    H7      20.675186   17.732958   23.150959 H          1 MOL1         0.0742
      15    H8      22.137657   18.691211   23.317754 H          1 MOL1         0.0742
      16    C6      20.351179   19.786055   23.830251 C.3        1 MOL1        -0.1856
      17    H9      19.309115   19.883370   23.503146 H          1 MOL1         0.0742
      18    H10     20.818256   20.770399   23.688473 H          1 MOL1         0.0742
      19    C7      20.379445   19.420783   25.327953 C.3        1 MOL1        -0.2871
      20    H11     19.889663   18.454316   25.505191 H          1 MOL1         0.0754
      21    H12     19.854535   20.180592   25.921411 H          1 MOL1         0.0754
      22    H13     21.411252   19.355341   25.697311 H          1 MOL1         0.0754
@<TRIPOS>BOND
    1     1     2    1
    2     1     3    2
    3     1     4    1
    4     4     5    1
    5     4     6    1
    6     4     7    1
    7     7     8    1
    8     7     9    1
    9     7    10    1
   10    10    11    1
   11    10    12    1
   12    10    13    1
   13    13    14    1
   14    13    15    1
   15    13    16    1
   16    16    17    1
   17    16    18    1
   18    16    19    1
   19    19    20    1
   20    19    21    1
   21    19    22    1
@<TRIPOS>SUBSTRUCTURE
       1 MOL1            1 RESIDUE      1      MOL     
@<SCITEGIC>MOL_PROPERTY
VConf Rank
SciTegic.value.IntegerValue
633

@<SCITEGIC>MOL_PROPERTY
Conf_Id
SciTegic.value.IntegerValue
6

@<SCITEGIC>MOL_PROPERTY
Delta U+W
SciTegic.value.DoubleValue
2.118

@<SCITEGIC>MOL_PROPERTY
U+W
SciTegic.value.DoubleValue
-51.042

@<SCITEGIC>MOL_PROPERTY
Grad RMS
SciTegic.value.DoubleValue
0.000000

@<SCITEGIC>MOL_PROPERTY
U
SciTegic.value.DoubleValue
10.045

@<SCITEGIC>MOL_PROPERTY
W
SciTegic.value.DoubleValue
-61.086

@<SCITEGIC>MOL_PROPERTY
W(PB)
SciTegic.value.DoubleValue
-63.356

@<SCITEGIC>MOL_PROPERTY
W(SA)
SciTegic.value.DoubleValue
2.270

@<SCITEGIC>MOL_PROPERTY
Valence
SciTegic.value.DoubleValue
10.100

@<SCITEGIC>MOL_PROPERTY
Coulomb
SciTegic.value.DoubleValue
-0.883

@<SCITEGIC>MOL_PROPERTY
VdW
SciTegic.value.DoubleValue
0.828

@<SCITEGIC>MOL_PROPERTY
VdW6
SciTegic.value.DoubleValue
-8.177

@<SCITEGIC>MOL_PROPERTY
VdW12
SciTegic.value.DoubleValue
9.004

@<SCITEGIC>MOL_PROPERTY
Bond
SciTegic.value.DoubleValue
0.182

@<SCITEGIC>MOL_PROPERTY
Angle
SciTegic.value.DoubleValue
2.988

@<SCITEGIC>MOL_PROPERTY
Pdih
SciTegic.value.DoubleValue
6.930

@<SCITEGIC>MOL_PROPERTY
Idih
SciTegic.value.DoubleValue
0.001

@<SCITEGIC>MOL_PROPERTY
Tether
SciTegic.value.DoubleValue
0.000

@<TRIPOS>MOLECULE
guest-s21_confgen4.mol2 : confsearch ligand conformer 634
          22          21           1
SMALL
USER_CHARGES
 
@<TRIPOS>ATOM
       1    C1      18.388447   20.089823   20.479269 C.2        1 MOL1         0.6145
       2    O1      19.224310   20.745411   19.888480 O.co2      1 MOL1        -0.6735
       3    O2      17.471255   20.581968   21.106650 O.co2      1 MOL1        -0.6735
       4    C2      18.451032   18.567426   20.370426 C.3        1 MOL1        -0.1985
       5    H1      18.301885   18.327930   19.311215 H          1 MOL1         0.0740
       6    H2      17.600764   18.135891   20.912336 H          1 MOL1         0.0740
       7    C3      19.780547   17.921546   20.852411 C.3        1 MOL1        -0.1882
       8    H3      19.856183   16.923721   20.399591 H          1 MOL1         0.0742
       9    H4      20.636153   18.493557   20.467296 H          1 MOL1         0.0742
      10    C4      19.901847   17.753090   22.387280 C.3        1 MOL1        -0.1880
      11    H5      20.798204   17.152934   22.595441 H          1 MOL1         0.0742
      12    H6      19.048094   17.173541   22.764186 H          1 MOL1         0.0742
      13    C5      20.006743   19.086606   23.161387 C.3        1 MOL1        -0.1880
      14    H7      20.794828   19.710131   22.717334 H          1 MOL1         0.0742
      15    H8      19.066394   19.644976   23.071780 H          1 MOL1         0.0742
      16    C6      20.311000   18.855761   24.656741 C.3        1 MOL1        -0.1856
      17    H9      21.255678   18.304677   24.762788 H          1 MOL1         0.0742
      18    H10     19.524491   18.230734   25.101892 H          1 MOL1         0.0742
      19    C7      20.406101   20.186989   25.428884 C.3        1 MOL1        -0.2871
      20    H11     21.206842   20.819404   25.023626 H          1 MOL1         0.0754
      21    H12     20.621644   20.004767   26.489714 H          1 MOL1         0.0754
      22    H13     19.463044   20.745647   25.365275 H          1 MOL1         0.0754
@<TRIPOS>BOND
    1     1     2    1
    2     1     3    2
    3     1     4    1
    4     4     5    1
    5     4     6    1
    6     4     7    1
    7     7     8    1
    8     7     9    1
    9     7    10    1
   10    10    11    1
   11    10    12    1
   12    10    13    1
   13    13    14    1
   14    13    15    1
   15    13    16    1
   16    16    17    1
   17    16    18    1
   18    16    19    1
   19    19    20    1
   20    19    21    1
   21    19    22    1
@<TRIPOS>SUBSTRUCTURE
       1 MOL1            1 RESIDUE      1      MOL     
@<SCITEGIC>MOL_PROPERTY
VConf Rank
SciTegic.value.IntegerValue
634

@<SCITEGIC>MOL_PROPERTY
Conf_Id
SciTegic.value.IntegerValue
8

@<SCITEGIC>MOL_PROPERTY
Delta U+W
SciTegic.value.DoubleValue
1.886

@<SCITEGIC>MOL_PROPERTY
U+W
SciTegic.value.DoubleValue
-51.274

@<SCITEGIC>MOL_PROPERTY
Grad RMS
SciTegic.value.DoubleValue
0.000000

@<SCITEGIC>MOL_PROPERTY
U
SciTegic.value.DoubleValue
11.237

@<SCITEGIC>MOL_PROPERTY
W
SciTegic.value.DoubleValue
-62.510

@<SCITEGIC>MOL_PROPERTY
W(PB)
SciTegic.value.DoubleValue
-64.777

@<SCITEGIC>MOL_PROPERTY
W(SA)
SciTegic.value.DoubleValue
2.267

@<SCITEGIC>MOL_PROPERTY
Valence
SciTegic.value.DoubleValue
9.029

@<SCITEGIC>MOL_PROPERTY
Coulomb
SciTegic.value.DoubleValue
1.667

@<SCITEGIC>MOL_PROPERTY
VdW
SciTegic.value.DoubleValue
0.540

@<SCITEGIC>MOL_PROPERTY
VdW6
SciTegic.value.DoubleValue
-8.825

@<SCITEGIC>MOL_PROPERTY
VdW12
SciTegic.value.DoubleValue
9.365

@<SCITEGIC>MOL_PROPERTY
Bond
SciTegic.value.DoubleValue
0.186

@<SCITEGIC>MOL_PROPERTY
Angle
SciTegic.value.DoubleValue
3.195

@<SCITEGIC>MOL_PROPERTY
Pdih
SciTegic.value.DoubleValue
5.642

@<SCITEGIC>MOL_PROPERTY
Idih
SciTegic.value.DoubleValue
0.007

@<SCITEGIC>MOL_PROPERTY
Tether
SciTegic.value.DoubleValue
0.000

@<TRIPOS>MOLECULE
guest-s21_confgen4.mol2 : confsearch ligand conformer 635
          22          21           1
SMALL
USER_CHARGES
 
@<TRIPOS>ATOM
       1    C1      19.546813   15.870893   22.156560 C.2        1 MOL1         0.6145
       2    O1      19.342698   16.003357   20.965949 O.co2      1 MOL1        -0.6735
       3    O2      18.906321   15.122981   22.869094 O.co2      1 MOL1        -0.6735
       4    C2      20.688328   16.663164   22.787762 C.3        1 MOL1        -0.1985
       5    H1      21.327005   17.056436   21.988928 H          1 MOL1         0.0740
       6    H2      21.303108   15.953333   23.353367 H          1 MOL1         0.0740
       7    C3      20.223184   17.804873   23.732902 C.3        1 MOL1        -0.1882
       8    H3      19.654068   17.363135   24.562541 H          1 MOL1         0.0742
       9    H4      21.104242   18.280819   24.184059 H          1 MOL1         0.0742
      10    C4      19.350072   18.888918   23.053746 C.3        1 MOL1        -0.1880
      11    H5      19.006228   19.582474   23.831400 H          1 MOL1         0.0742
      12    H6      18.447960   18.426855   22.629936 H          1 MOL1         0.0742
      13    C5      20.095863   19.679011   21.950571 C.3        1 MOL1        -0.1880
      14    H7      21.009095   20.126346   22.365768 H          1 MOL1         0.0742
      15    H8      20.416251   18.985677   21.162172 H          1 MOL1         0.0742
      16    C6      19.231842   20.780666   21.293438 C.3        1 MOL1        -0.1856
      17    H9      18.310211   20.338028   20.890887 H          1 MOL1         0.0742
      18    H10     19.779820   21.190410   20.433784 H          1 MOL1         0.0742
      19    C7      18.878616   21.938610   22.252193 C.3        1 MOL1        -0.2871
      20    H11     18.226049   21.601140   23.066820 H          1 MOL1         0.0754
      21    H12     18.349980   22.735098   21.712705 H          1 MOL1         0.0754
      22    H13     19.784749   22.373606   22.693555 H          1 MOL1         0.0754
@<TRIPOS>BOND
    1     1     2    1
    2     1     3    2
    3     1     4    1
    4     4     5    1
    5     4     6    1
    6     4     7    1
    7     7     8    1
    8     7     9    1
    9     7    10    1
   10    10    11    1
   11    10    12    1
   12    10    13    1
   13    13    14    1
   14    13    15    1
   15    13    16    1
   16    16    17    1
   17    16    18    1
   18    16    19    1
   19    19    20    1
   20    19    21    1
   21    19    22    1
@<TRIPOS>SUBSTRUCTURE
       1 MOL1            1 RESIDUE      1      MOL     
@<SCITEGIC>MOL_PROPERTY
VConf Rank
SciTegic.value.IntegerValue
635

@<SCITEGIC>MOL_PROPERTY
Conf_Id
SciTegic.value.IntegerValue
93

@<SCITEGIC>MOL_PROPERTY
Delta U+W
SciTegic.value.DoubleValue
1.836

@<SCITEGIC>MOL_PROPERTY
U+W
SciTegic.value.DoubleValue
-51.323

@<SCITEGIC>MOL_PROPERTY
Grad RMS
SciTegic.value.DoubleValue
0.000000

@<SCITEGIC>MOL_PROPERTY
U
SciTegic.value.DoubleValue
10.427

@<SCITEGIC>MOL_PROPERTY
W
SciTegic.value.DoubleValue
-61.751

@<SCITEGIC>MOL_PROPERTY
W(PB)
SciTegic.value.DoubleValue
-63.980

@<SCITEGIC>MOL_PROPERTY
W(SA)
SciTegic.value.DoubleValue
2.230

@<SCITEGIC>MOL_PROPERTY
Valence
SciTegic.value.DoubleValue
8.446

@<SCITEGIC>MOL_PROPERTY
Coulomb
SciTegic.value.DoubleValue
1.306

@<SCITEGIC>MOL_PROPERTY
VdW
SciTegic.value.DoubleValue
0.676

@<SCITEGIC>MOL_PROPERTY
VdW6
SciTegic.value.DoubleValue
-8.928

@<SCITEGIC>MOL_PROPERTY
VdW12
SciTegic.value.DoubleValue
9.604

@<SCITEGIC>MOL_PROPERTY
Bond
SciTegic.value.DoubleValue
0.209

@<SCITEGIC>MOL_PROPERTY
Angle
SciTegic.value.DoubleValue
3.066

@<SCITEGIC>MOL_PROPERTY
Pdih
SciTegic.value.DoubleValue
5.170

@<SCITEGIC>MOL_PROPERTY
Idih
SciTegic.value.DoubleValue
0.001

@<SCITEGIC>MOL_PROPERTY
Tether
SciTegic.value.DoubleValue
0.000

@<TRIPOS>MOLECULE
guest-s21_confgen4.mol2 : confsearch ligand conformer 636
          22          21           1
SMALL
USER_CHARGES
 
@<TRIPOS>ATOM
       1    C1      22.720495   18.471381   22.166429 C.2        1 MOL1         0.6145
       2    O1      23.404413   18.715318   21.191720 O.co2      1 MOL1        -0.6735
       3    O2      22.507117   17.346244   22.573005 O.co2      1 MOL1        -0.6735
       4    C2      22.123017   19.645089   22.937527 C.3        1 MOL1        -0.1985
       5    H1      22.935944   20.354530   23.131346 H          1 MOL1         0.0740
       6    H2      21.785769   19.287114   23.916724 H          1 MOL1         0.0740
       7    C3      20.972212   20.375450   22.192296 C.3        1 MOL1        -0.1882
       8    H3      20.643399   21.235304   22.791350 H          1 MOL1         0.0742
       9    H4      21.368447   20.788163   21.254217 H          1 MOL1         0.0742
      10    C4      19.748317   19.484621   21.864826 C.3        1 MOL1        -0.1880
      11    H5      20.061712   18.640405   21.235535 H          1 MOL1         0.0742
      12    H6      19.049938   20.077861   21.261229 H          1 MOL1         0.0742
      13    C5      19.019537   18.951905   23.122815 C.3        1 MOL1        -0.1880
      14    H7      19.713970   18.338195   23.711081 H          1 MOL1         0.0742
      15    H8      18.721911   19.792230   23.764506 H          1 MOL1         0.0742
      16    C6      17.780448   18.086552   22.794461 C.3        1 MOL1        -0.1856
      17    H9      17.411787   17.633940   23.725271 H          1 MOL1         0.0742
      18    H10     18.072821   17.253937   22.139748 H          1 MOL1         0.0742
      19    C7      16.629486   18.883324   22.142350 C.3        1 MOL1        -0.2871
      20    H11     16.910173   19.255018   21.149169 H          1 MOL1         0.0754
      21    H12     16.344287   19.741844   22.764207 H          1 MOL1         0.0754
      22    H13     15.743979   18.246386   22.019528 H          1 MOL1         0.0754
@<TRIPOS>BOND
    1     1     2    1
    2     1     3    2
    3     1     4    1
    4     4     5    1
    5     4     6    1
    6     4     7    1
    7     7     8    1
    8     7     9    1
    9     7    10    1
   10    10    11    1
   11    10    12    1
   12    10    13    1
   13    13    14    1
   14    13    15    1
   15    13    16    1
   16    16    17    1
   17    16    18    1
   18    16    19    1
   19    19    20    1
   20    19    21    1
   21    19    22    1
@<TRIPOS>SUBSTRUCTURE
       1 MOL1            1 RESIDUE      1      MOL     
@<SCITEGIC>MOL_PROPERTY
VConf Rank
SciTegic.value.IntegerValue
636

@<SCITEGIC>MOL_PROPERTY
Conf_Id
SciTegic.value.IntegerValue
70

@<SCITEGIC>MOL_PROPERTY
Delta U+W
SciTegic.value.DoubleValue
1.803

@<SCITEGIC>MOL_PROPERTY
U+W
SciTegic.value.DoubleValue
-51.356

@<SCITEGIC>MOL_PROPERTY
Grad RMS
SciTegic.value.DoubleValue
0.000000

@<SCITEGIC>MOL_PROPERTY
U
SciTegic.value.DoubleValue
10.428

@<SCITEGIC>MOL_PROPERTY
W
SciTegic.value.DoubleValue
-61.784

@<SCITEGIC>MOL_PROPERTY
W(PB)
SciTegic.value.DoubleValue
-64.014

@<SCITEGIC>MOL_PROPERTY
W(SA)
SciTegic.value.DoubleValue
2.230

@<SCITEGIC>MOL_PROPERTY
Valence
SciTegic.value.DoubleValue
8.445

@<SCITEGIC>MOL_PROPERTY
Coulomb
SciTegic.value.DoubleValue
1.306

@<SCITEGIC>MOL_PROPERTY
VdW
SciTegic.value.DoubleValue
0.676

@<SCITEGIC>MOL_PROPERTY
VdW6
SciTegic.value.DoubleValue
-8.929

@<SCITEGIC>MOL_PROPERTY
VdW12
SciTegic.value.DoubleValue
9.605

@<SCITEGIC>MOL_PROPERTY
Bond
SciTegic.value.DoubleValue
0.209

@<SCITEGIC>MOL_PROPERTY
Angle
SciTegic.value.DoubleValue
3.066

@<SCITEGIC>MOL_PROPERTY
Pdih
SciTegic.value.DoubleValue
5.170

@<SCITEGIC>MOL_PROPERTY
Idih
SciTegic.value.DoubleValue
0.001

@<SCITEGIC>MOL_PROPERTY
Tether
SciTegic.value.DoubleValue
0.000

@<TRIPOS>MOLECULE
guest-s21_confgen4.mol2 : confsearch ligand conformer 637
          22          21           1
SMALL
USER_CHARGES
 
@<TRIPOS>ATOM
       1    C1      18.570255   15.970728   21.667329 C.2        1 MOL1         0.6145
       2    O1      17.390531   16.020556   21.954873 O.co2      1 MOL1        -0.6735
       3    O2      19.343040   15.158826   22.136899 O.co2      1 MOL1        -0.6735
       4    C2      19.103831   16.969893   20.644556 C.3        1 MOL1        -0.1985
       5    H1      18.388063   17.004390   19.814783 H          1 MOL1         0.0740
       6    H2      20.045215   16.583361   20.235619 H          1 MOL1         0.0740
       7    C3      19.311095   18.399165   21.209540 C.3        1 MOL1        -0.1882
       8    H3      19.567778   19.075664   20.383266 H          1 MOL1         0.0742
       9    H4      18.361662   18.756394   21.629772 H          1 MOL1         0.0742
      10    C4      20.425773   18.455967   22.281375 C.3        1 MOL1        -0.1880
      11    H5      21.341982   18.013432   21.867172 H          1 MOL1         0.0742
      12    H6      20.145819   17.835944   23.144221 H          1 MOL1         0.0742
      13    C5      20.746806   19.891430   22.760865 C.3        1 MOL1        -0.1880
      14    H7      21.623968   19.849675   23.420966 H          1 MOL1         0.0742
      15    H8      21.034621   20.511421   21.900842 H          1 MOL1         0.0742
      16    C6      19.579676   20.562328   23.519726 C.3        1 MOL1        -0.1856
      17    H9      19.256896   19.916894   24.348277 H          1 MOL1         0.0742
      18    H10     18.715705   20.684548   22.853411 H          1 MOL1         0.0742
      19    C7      19.984908   21.943088   24.073822 C.3        1 MOL1        -0.2871
      20    H11     20.824164   21.854210   24.776034 H          1 MOL1         0.0754
      21    H12     19.145116   22.407518   24.606845 H          1 MOL1         0.0754
      22    H13     20.286547   22.618365   23.262411 H          1 MOL1         0.0754
@<TRIPOS>BOND
    1     1     2    1
    2     1     3    2
    3     1     4    1
    4     4     5    1
    5     4     6    1
    6     4     7    1
    7     7     8    1
    8     7     9    1
    9     7    10    1
   10    10    11    1
   11    10    12    1
   12    10    13    1
   13    13    14    1
   14    13    15    1
   15    13    16    1
   16    16    17    1
   17    16    18    1
   18    16    19    1
   19    19    20    1
   20    19    21    1
   21    19    22    1
@<TRIPOS>SUBSTRUCTURE
       1 MOL1            1 RESIDUE      1      MOL     
@<SCITEGIC>MOL_PROPERTY
VConf Rank
SciTegic.value.IntegerValue
637

@<SCITEGIC>MOL_PROPERTY
Conf_Id
SciTegic.value.IntegerValue
85

@<SCITEGIC>MOL_PROPERTY
Delta U+W
SciTegic.value.DoubleValue
0.707

@<SCITEGIC>MOL_PROPERTY
U+W
SciTegic.value.DoubleValue
-52.452

@<SCITEGIC>MOL_PROPERTY
Grad RMS
SciTegic.value.DoubleValue
0.000000

@<SCITEGIC>MOL_PROPERTY
U
SciTegic.value.DoubleValue
8.925

@<SCITEGIC>MOL_PROPERTY
W
SciTegic.value.DoubleValue
-61.378

@<SCITEGIC>MOL_PROPERTY
W(PB)
SciTegic.value.DoubleValue
-63.661

@<SCITEGIC>MOL_PROPERTY
W(SA)
SciTegic.value.DoubleValue
2.283

@<SCITEGIC>MOL_PROPERTY
Valence
SciTegic.value.DoubleValue
7.881

@<SCITEGIC>MOL_PROPERTY
Coulomb
SciTegic.value.DoubleValue
0.349

@<SCITEGIC>MOL_PROPERTY
VdW
SciTegic.value.DoubleValue
0.695

@<SCITEGIC>MOL_PROPERTY
VdW6
SciTegic.value.DoubleValue
-8.049

@<SCITEGIC>MOL_PROPERTY
VdW12
SciTegic.value.DoubleValue
8.743

@<SCITEGIC>MOL_PROPERTY
Bond
SciTegic.value.DoubleValue
0.156

@<SCITEGIC>MOL_PROPERTY
Angle
SciTegic.value.DoubleValue
2.660

@<SCITEGIC>MOL_PROPERTY
Pdih
SciTegic.value.DoubleValue
5.064

@<SCITEGIC>MOL_PROPERTY
Idih
SciTegic.value.DoubleValue
0.001

@<SCITEGIC>MOL_PROPERTY
Tether
SciTegic.value.DoubleValue
0.000

@<TRIPOS>MOLECULE
guest-s21_confgen4.mol2 : confsearch ligand conformer 638
          22          21           1
SMALL
USER_CHARGES
 
@<TRIPOS>ATOM
       1    C1      16.691418   19.622341   21.662641 C.2        1 MOL1         0.6145
       2    O1      16.352602   20.698255   22.114917 O.co2      1 MOL1        -0.6735
       3    O2      16.467710   19.272974   20.520332 O.co2      1 MOL1        -0.6735
       4    C2      17.417024   18.646050   22.584459 C.3        1 MOL1        -0.1985
       5    H1      16.948468   17.663557   22.453489 H          1 MOL1         0.0740
       6    H2      17.238940   18.946608   23.624077 H          1 MOL1         0.0740
       7    C3      18.939945   18.532474   22.313350 C.3        1 MOL1        -0.1882
       8    H3      19.336222   17.702141   22.911193 H          1 MOL1         0.0742
       9    H4      19.104807   18.277200   21.257446 H          1 MOL1         0.0742
      10    C4      19.705733   19.828347   22.667416 C.3        1 MOL1        -0.1880
      11    H5      19.605831   20.028854   23.742831 H          1 MOL1         0.0742
      12    H6      19.235676   20.677320   22.152505 H          1 MOL1         0.0742
      13    C5      21.206943   19.804936   22.284868 C.3        1 MOL1        -0.1880
      14    H7      21.316552   19.697837   21.197006 H          1 MOL1         0.0742
      15    H8      21.625193   20.790554   22.530818 H          1 MOL1         0.0742
      16    C6      22.046928   18.729054   23.017538 C.3        1 MOL1        -0.1856
      17    H9      21.599395   18.495144   23.993351 H          1 MOL1         0.0742
      18    H10     23.041626   19.144750   23.229838 H          1 MOL1         0.0742
      19    C7      22.236432   17.437458   22.191162 C.3        1 MOL1        -0.2871
      20    H11     21.279063   16.959257   21.955210 H          1 MOL1         0.0754
      21    H12     22.845418   16.712429   22.746399 H          1 MOL1         0.0754
      22    H13     22.749794   17.651805   21.244800 H          1 MOL1         0.0754
@<TRIPOS>BOND
    1     1     2    1
    2     1     3    2
    3     1     4    1
    4     4     5    1
    5     4     6    1
    6     4     7    1
    7     7     8    1
    8     7     9    1
    9     7    10    1
   10    10    11    1
   11    10    12    1
   12    10    13    1
   13    13    14    1
   14    13    15    1
   15    13    16    1
   16    16    17    1
   17    16    18    1
   18    16    19    1
   19    19    20    1
   20    19    21    1
   21    19    22    1
@<TRIPOS>SUBSTRUCTURE
       1 MOL1            1 RESIDUE      1      MOL     
@<SCITEGIC>MOL_PROPERTY
VConf Rank
SciTegic.value.IntegerValue
638

@<SCITEGIC>MOL_PROPERTY
Conf_Id
SciTegic.value.IntegerValue
82

@<SCITEGIC>MOL_PROPERTY
Delta U+W
SciTegic.value.DoubleValue
3.438

@<SCITEGIC>MOL_PROPERTY
U+W
SciTegic.value.DoubleValue
-49.721

@<SCITEGIC>MOL_PROPERTY
Grad RMS
SciTegic.value.DoubleValue
0.000000

@<SCITEGIC>MOL_PROPERTY
U
SciTegic.value.DoubleValue
11.773

@<SCITEGIC>MOL_PROPERTY
W
SciTegic.value.DoubleValue
-61.495

@<SCITEGIC>MOL_PROPERTY
W(PB)
SciTegic.value.DoubleValue
-63.749

@<SCITEGIC>MOL_PROPERTY
W(SA)
SciTegic.value.DoubleValue
2.254

@<SCITEGIC>MOL_PROPERTY
Valence
SciTegic.value.DoubleValue
10.419

@<SCITEGIC>MOL_PROPERTY
Coulomb
SciTegic.value.DoubleValue
0.565

@<SCITEGIC>MOL_PROPERTY
VdW
SciTegic.value.DoubleValue
0.789

@<SCITEGIC>MOL_PROPERTY
VdW6
SciTegic.value.DoubleValue
-8.847

@<SCITEGIC>MOL_PROPERTY
VdW12
SciTegic.value.DoubleValue
9.636

@<SCITEGIC>MOL_PROPERTY
Bond
SciTegic.value.DoubleValue
0.200

@<SCITEGIC>MOL_PROPERTY
Angle
SciTegic.value.DoubleValue
3.187

@<SCITEGIC>MOL_PROPERTY
Pdih
SciTegic.value.DoubleValue
7.032

@<SCITEGIC>MOL_PROPERTY
Idih
SciTegic.value.DoubleValue
0.001

@<SCITEGIC>MOL_PROPERTY
Tether
SciTegic.value.DoubleValue
0.000

@<TRIPOS>MOLECULE
guest-s21_confgen4.mol2 : confsearch ligand conformer 639
          22          21           1
SMALL
USER_CHARGES
 
@<TRIPOS>ATOM
       1    C1      16.875119   18.456242   23.655619 C.2        1 MOL1         0.6145
       2    O1      16.071741   18.990871   22.916885 O.co2      1 MOL1        -0.6735
       3    O2      16.723988   17.343490   24.120249 O.co2      1 MOL1        -0.6735
       4    C2      18.130439   19.235617   24.037910 C.3        1 MOL1        -0.1985
       5    H1      18.560198   18.787324   24.941900 H          1 MOL1         0.0740
       6    H2      17.815489   20.250920   24.306159 H          1 MOL1         0.0740
       7    C3      19.198418   19.305554   22.915314 C.3        1 MOL1        -0.1882
       8    H3      18.742306   19.712462   22.002261 H          1 MOL1         0.0742
       9    H4      19.980550   20.009565   23.226028 H          1 MOL1         0.0742
      10    C4      19.838316   17.930017   22.616133 C.3        1 MOL1        -0.1880
      11    H5      19.043779   17.198809   22.413928 H          1 MOL1         0.0742
      12    H6      20.365166   17.570494   23.510488 H          1 MOL1         0.0742
      13    C5      20.810913   17.929546   21.410073 C.3        1 MOL1        -0.1880
      14    H7      21.153165   16.896054   21.263020 H          1 MOL1         0.0742
      15    H8      20.271595   18.198322   20.491475 H          1 MOL1         0.0742
      16    C6      22.059486   18.830219   21.582561 C.3        1 MOL1        -0.1856
      17    H9      22.919151   18.332168   21.113285 H          1 MOL1         0.0742
      18    H10     22.310726   18.933884   22.647147 H          1 MOL1         0.0742
      19    C7      21.900919   20.222150   20.931093 C.3        1 MOL1        -0.2871
      20    H11     21.722159   20.129550   19.851947 H          1 MOL1         0.0754
      21    H12     22.812737   20.817172   21.070219 H          1 MOL1         0.0754
      22    H13     21.065606   20.783452   21.364794 H          1 MOL1         0.0754
@<TRIPOS>BOND
    1     1     2    1
    2     1     3    2
    3     1     4    1
    4     4     5    1
    5     4     6    1
    6     4     7    1
    7     7     8    1
    8     7     9    1
    9     7    10    1
   10    10    11    1
   11    10    12    1
   12    10    13    1
   13    13    14    1
   14    13    15    1
   15    13    16    1
   16    16    17    1
   17    16    18    1
   18    16    19    1
   19    19    20    1
   20    19    21    1
   21    19    22    1
@<TRIPOS>SUBSTRUCTURE
       1 MOL1            1 RESIDUE      1      MOL     
@<SCITEGIC>MOL_PROPERTY
VConf Rank
SciTegic.value.IntegerValue
639

@<SCITEGIC>MOL_PROPERTY
Conf_Id
SciTegic.value.IntegerValue
94

@<SCITEGIC>MOL_PROPERTY
Delta U+W
SciTegic.value.DoubleValue
3.471

@<SCITEGIC>MOL_PROPERTY
U+W
SciTegic.value.DoubleValue
-49.688

@<SCITEGIC>MOL_PROPERTY
Grad RMS
SciTegic.value.DoubleValue
0.000000

@<SCITEGIC>MOL_PROPERTY
U
SciTegic.value.DoubleValue
11.773

@<SCITEGIC>MOL_PROPERTY
W
SciTegic.value.DoubleValue
-61.461

@<SCITEGIC>MOL_PROPERTY
W(PB)
SciTegic.value.DoubleValue
-63.710

@<SCITEGIC>MOL_PROPERTY
W(SA)
SciTegic.value.DoubleValue
2.248

@<SCITEGIC>MOL_PROPERTY
Valence
SciTegic.value.DoubleValue
10.419

@<SCITEGIC>MOL_PROPERTY
Coulomb
SciTegic.value.DoubleValue
0.566

@<SCITEGIC>MOL_PROPERTY
VdW
SciTegic.value.DoubleValue
0.789

@<SCITEGIC>MOL_PROPERTY
VdW6
SciTegic.value.DoubleValue
-8.847

@<SCITEGIC>MOL_PROPERTY
VdW12
SciTegic.value.DoubleValue
9.636

@<SCITEGIC>MOL_PROPERTY
Bond
SciTegic.value.DoubleValue
0.200

@<SCITEGIC>MOL_PROPERTY
Angle
SciTegic.value.DoubleValue
3.187

@<SCITEGIC>MOL_PROPERTY
Pdih
SciTegic.value.DoubleValue
7.032

@<SCITEGIC>MOL_PROPERTY
Idih
SciTegic.value.DoubleValue
0.001

@<SCITEGIC>MOL_PROPERTY
Tether
SciTegic.value.DoubleValue
0.000

@<TRIPOS>MOLECULE
guest-s21_confgen4.mol2 : confsearch ligand conformer 640
          22          21           1
SMALL
USER_CHARGES
 
@<TRIPOS>ATOM
       1    C1      22.701459   18.674940   23.967244 C.2        1 MOL1         0.6145
       2    O1      23.163984   17.738565   24.588510 O.co2      1 MOL1        -0.6735
       3    O2      22.973541   19.836241   24.199465 O.co2      1 MOL1        -0.6735
       4    C2      21.710684   18.376786   22.847690 C.3        1 MOL1        -0.1985
       5    H1      21.986552   17.417166   22.394635 H          1 MOL1         0.0740
       6    H2      21.834167   19.147757   22.078672 H          1 MOL1         0.0740
       7    C3      20.241741   18.332182   23.342334 C.3        1 MOL1        -0.1882
       8    H3      20.168811   17.610123   24.167205 H          1 MOL1         0.0742
       9    H4      19.967113   19.306922   23.766936 H          1 MOL1         0.0742
      10    C4      19.230504   17.927224   22.240597 C.3        1 MOL1        -0.1880
      11    H5      18.227563   17.868397   22.683452 H          1 MOL1         0.0742
      12    H6      19.465304   16.909361   21.900937 H          1 MOL1         0.0742
      13    C5      19.190089   18.864171   21.004610 C.3        1 MOL1        -0.1880
      14    H7      20.144513   18.797193   20.466241 H          1 MOL1         0.0742
      15    H8      18.429284   18.489588   20.306465 H          1 MOL1         0.0742
      16    C6      18.892384   20.351808   21.314831 C.3        1 MOL1        -0.1856
      17    H9      18.915569   20.917390   20.373297 H          1 MOL1         0.0742
      18    H10     19.688561   20.773942   21.942452 H          1 MOL1         0.0742
      19    C7      17.522609   20.571159   21.992625 C.3        1 MOL1        -0.2871
      20    H11     16.712524   20.141679   21.389084 H          1 MOL1         0.0754
      21    H12     17.321890   21.643245   22.115456 H          1 MOL1         0.0754
      22    H13     17.492317   20.110526   22.988043 H          1 MOL1         0.0754
@<TRIPOS>BOND
    1     1     2    1
    2     1     3    2
    3     1     4    1
    4     4     5    1
    5     4     6    1
    6     4     7    1
    7     7     8    1
    8     7     9    1
    9     7    10    1
   10    10    11    1
   11    10    12    1
   12    10    13    1
   13    13    14    1
   14    13    15    1
   15    13    16    1
   16    16    17    1
   17    16    18    1
   18    16    19    1
   19    19    20    1
   20    19    21    1
   21    19    22    1
@<TRIPOS>SUBSTRUCTURE
       1 MOL1            1 RESIDUE      1      MOL     
@<SCITEGIC>MOL_PROPERTY
VConf Rank
SciTegic.value.IntegerValue
640

@<SCITEGIC>MOL_PROPERTY
Conf_Id
SciTegic.value.IntegerValue
56

@<SCITEGIC>MOL_PROPERTY
Delta U+W
SciTegic.value.DoubleValue
0.853

@<SCITEGIC>MOL_PROPERTY
U+W
SciTegic.value.DoubleValue
-52.307

@<SCITEGIC>MOL_PROPERTY
Grad RMS
SciTegic.value.DoubleValue
0.000000

@<SCITEGIC>MOL_PROPERTY
U
SciTegic.value.DoubleValue
8.874

@<SCITEGIC>MOL_PROPERTY
W
SciTegic.value.DoubleValue
-61.181

@<SCITEGIC>MOL_PROPERTY
W(PB)
SciTegic.value.DoubleValue
-63.413

@<SCITEGIC>MOL_PROPERTY
W(SA)
SciTegic.value.DoubleValue
2.232

@<SCITEGIC>MOL_PROPERTY
Valence
SciTegic.value.DoubleValue
8.479

@<SCITEGIC>MOL_PROPERTY
Coulomb
SciTegic.value.DoubleValue
-0.357

@<SCITEGIC>MOL_PROPERTY
VdW
SciTegic.value.DoubleValue
0.753

@<SCITEGIC>MOL_PROPERTY
VdW6
SciTegic.value.DoubleValue
-9.081

@<SCITEGIC>MOL_PROPERTY
VdW12
SciTegic.value.DoubleValue
9.833

@<SCITEGIC>MOL_PROPERTY
Bond
SciTegic.value.DoubleValue
0.221

@<SCITEGIC>MOL_PROPERTY
Angle
SciTegic.value.DoubleValue
3.208

@<SCITEGIC>MOL_PROPERTY
Pdih
SciTegic.value.DoubleValue
5.050

@<SCITEGIC>MOL_PROPERTY
Idih
SciTegic.value.DoubleValue
0.000

@<SCITEGIC>MOL_PROPERTY
Tether
SciTegic.value.DoubleValue
0.000

@<TRIPOS>MOLECULE
guest-s21_confgen4.mol2 : confsearch ligand conformer 641
          22          21           1
SMALL
USER_CHARGES
 
@<TRIPOS>ATOM
       1    C1      15.825085   19.094967   22.794911 C.2        1 MOL1         0.6145
       2    O1      15.767352   20.288403   22.569572 O.co2      1 MOL1        -0.6735
       3    O2      14.853314   18.427452   23.088180 O.co2      1 MOL1        -0.6735
       4    C2      17.170223   18.371418   22.713630 C.3        1 MOL1        -0.1985
       5    H1      17.062956   17.563112   21.980757 H          1 MOL1         0.0740
       6    H2      17.347402   17.900179   23.687545 H          1 MOL1         0.0740
       7    C3      18.381383   19.264937   22.335313 C.3        1 MOL1        -0.1882
       8    H3      18.194665   19.738844   21.361641 H          1 MOL1         0.0742
       9    H4      18.479492   20.076108   23.070069 H          1 MOL1         0.0742
      10    C4      19.695413   18.456041   22.275925 C.3        1 MOL1        -0.1880
      11    H5      19.594912   17.645741   21.540777 H          1 MOL1         0.0742
      12    H6      19.879867   17.983123   23.250324 H          1 MOL1         0.0742
      13    C5      20.898871   19.346737   21.899552 C.3        1 MOL1        -0.1880
      14    H7      20.714849   19.819939   20.925209 H          1 MOL1         0.0742
      15    H8      20.999793   20.157195   22.634467 H          1 MOL1         0.0742
      16    C6      22.212325   18.539031   21.839958 C.3        1 MOL1        -0.1856
      17    H9      22.115858   17.728543   21.104242 H          1 MOL1         0.0742
      18    H10     22.400778   18.065741   22.813590 H          1 MOL1         0.0742
      19    C7      23.411642   19.432084   21.463884 C.3        1 MOL1        -0.2871
      20    H11     23.263786   19.894001   20.478907 H          1 MOL1         0.0754
      21    H12     24.336559   18.842006   21.426079 H          1 MOL1         0.0754
      22    H13     23.550883   20.233675   22.201089 H          1 MOL1         0.0754
@<TRIPOS>BOND
    1     1     2    1
    2     1     3    2
    3     1     4    1
    4     4     5    1
    5     4     6    1
    6     4     7    1
    7     7     8    1
    8     7     9    1
    9     7    10    1
   10    10    11    1
   11    10    12    1
   12    10    13    1
   13    13    14    1
   14    13    15    1
   15    13    16    1
   16    16    17    1
   17    16    18    1
   18    16    19    1
   19    19    20    1
   20    19    21    1
   21    19    22    1
@<TRIPOS>SUBSTRUCTURE
       1 MOL1            1 RESIDUE      1      MOL     
@<SCITEGIC>MOL_PROPERTY
VConf Rank
SciTegic.value.IntegerValue
641

@<SCITEGIC>MOL_PROPERTY
Conf_Id
SciTegic.value.IntegerValue
0

@<SCITEGIC>MOL_PROPERTY
Delta U+W
SciTegic.value.DoubleValue
0.000

@<SCITEGIC>MOL_PROPERTY
U+W
SciTegic.value.DoubleValue
-53.159

@<SCITEGIC>MOL_PROPERTY
Grad RMS
SciTegic.value.DoubleValue
0.000000

@<SCITEGIC>MOL_PROPERTY
U
SciTegic.value.DoubleValue
6.763

@<SCITEGIC>MOL_PROPERTY
W
SciTegic.value.DoubleValue
-59.922

@<SCITEGIC>MOL_PROPERTY
W(PB)
SciTegic.value.DoubleValue
-62.256

@<SCITEGIC>MOL_PROPERTY
W(SA)
SciTegic.value.DoubleValue
2.334

@<SCITEGIC>MOL_PROPERTY
Valence
SciTegic.value.DoubleValue
7.600

@<SCITEGIC>MOL_PROPERTY
Coulomb
SciTegic.value.DoubleValue
-2.139

@<SCITEGIC>MOL_PROPERTY
VdW
SciTegic.value.DoubleValue
1.302

@<SCITEGIC>MOL_PROPERTY
VdW6
SciTegic.value.DoubleValue
-6.786

@<SCITEGIC>MOL_PROPERTY
VdW12
SciTegic.value.DoubleValue
8.088

@<SCITEGIC>MOL_PROPERTY
Bond
SciTegic.value.DoubleValue
0.134

@<SCITEGIC>MOL_PROPERTY
Angle
SciTegic.value.DoubleValue
2.720

@<SCITEGIC>MOL_PROPERTY
Pdih
SciTegic.value.DoubleValue
4.746

@<SCITEGIC>MOL_PROPERTY
Idih
SciTegic.value.DoubleValue
0.000

@<SCITEGIC>MOL_PROPERTY
Tether
SciTegic.value.DoubleValue
0.000

@<TRIPOS>MOLECULE
guest-s21_confgen4.mol2 : confsearch ligand conformer 642
          22          21           1
SMALL
USER_CHARGES
 
@<TRIPOS>ATOM
       1    C1      18.197240   15.441616   21.115962 C.2        1 MOL1         0.6145
       2    O1      17.816859   14.766811   22.052114 O.co2      1 MOL1        -0.6735
       3    O2      18.647861   14.974511   20.088741 O.co2      1 MOL1        -0.6735
       4    C2      18.125965   16.958897   21.246305 C.3        1 MOL1        -0.1985
       5    H1      17.257320   17.207046   21.868029 H          1 MOL1         0.0740
       6    H2      17.941856   17.378202   20.249837 H          1 MOL1         0.0740
       7    C3      19.411392   17.571572   21.854875 C.3        1 MOL1        -0.1882
       8    H3      19.588698   17.131993   22.846291 H          1 MOL1         0.0742
       9    H4      20.273212   17.303146   21.228148 H          1 MOL1         0.0742
      10    C4      19.314262   19.107707   21.976268 C.3        1 MOL1        -0.1880
      11    H5      18.451100   19.372644   22.602313 H          1 MOL1         0.0742
      12    H6      19.135746   19.543843   20.983752 H          1 MOL1         0.0742
      13    C5      20.597001   19.715617   22.583162 C.3        1 MOL1        -0.1880
      14    H7      20.775874   19.279721   23.575696 H          1 MOL1         0.0742
      15    H8      21.460411   19.450893   21.957405 H          1 MOL1         0.0742
      16    C6      20.500696   21.250868   22.704817 C.3        1 MOL1        -0.1856
      17    H9      19.639216   21.519572   23.331816 H          1 MOL1         0.0742
      18    H10     20.323737   21.690751   21.713522 H          1 MOL1         0.0742
      19    C7      21.783544   21.854083   23.311259 C.3        1 MOL1        -0.2871
      20    H11     22.657550   21.627242   22.686708 H          1 MOL1         0.0754
      21    H12     21.967946   21.454627   24.317160 H          1 MOL1         0.0754
      22    H13     21.697792   22.945620   23.390552 H          1 MOL1         0.0754
@<TRIPOS>BOND
    1     1     2    1
    2     1     3    2
    3     1     4    1
    4     4     5    1
    5     4     6    1
    6     4     7    1
    7     7     8    1
    8     7     9    1
    9     7    10    1
   10    10    11    1
   11    10    12    1
   12    10    13    1
   13    13    14    1
   14    13    15    1
   15    13    16    1
   16    16    17    1
   17    16    18    1
   18    16    19    1
   19    19    20    1
   20    19    21    1
   21    19    22    1
@<TRIPOS>SUBSTRUCTURE
       1 MOL1            1 RESIDUE      1      MOL     
@<SCITEGIC>MOL_PROPERTY
VConf Rank
SciTegic.value.IntegerValue
642

@<SCITEGIC>MOL_PROPERTY
Conf_Id
SciTegic.value.IntegerValue
10

@<SCITEGIC>MOL_PROPERTY
Delta U+W
SciTegic.value.DoubleValue
-1.291

@<SCITEGIC>MOL_PROPERTY
U+W
SciTegic.value.DoubleValue
-54.451

@<SCITEGIC>MOL_PROPERTY
Grad RMS
SciTegic.value.DoubleValue
0.000000

@<SCITEGIC>MOL_PROPERTY
U
SciTegic.value.DoubleValue
5.779

@<SCITEGIC>MOL_PROPERTY
W
SciTegic.value.DoubleValue
-60.230

@<SCITEGIC>MOL_PROPERTY
W(PB)
SciTegic.value.DoubleValue
-62.557

@<SCITEGIC>MOL_PROPERTY
W(SA)
SciTegic.value.DoubleValue
2.328

@<SCITEGIC>MOL_PROPERTY
Valence
SciTegic.value.DoubleValue
7.101

@<SCITEGIC>MOL_PROPERTY
Coulomb
SciTegic.value.DoubleValue
-2.079

@<SCITEGIC>MOL_PROPERTY
VdW
SciTegic.value.DoubleValue
0.757

@<SCITEGIC>MOL_PROPERTY
VdW6
SciTegic.value.DoubleValue
-6.496

@<SCITEGIC>MOL_PROPERTY
VdW12
SciTegic.value.DoubleValue
7.253

@<SCITEGIC>MOL_PROPERTY
Bond
SciTegic.value.DoubleValue
0.100

@<SCITEGIC>MOL_PROPERTY
Angle
SciTegic.value.DoubleValue
2.262

@<SCITEGIC>MOL_PROPERTY
Pdih
SciTegic.value.DoubleValue
4.738

@<SCITEGIC>MOL_PROPERTY
Idih
SciTegic.value.DoubleValue
0.001

@<SCITEGIC>MOL_PROPERTY
Tether
SciTegic.value.DoubleValue
0.000

@<TRIPOS>MOLECULE
guest-s21_confgen4.mol2 : confsearch ligand conformer 643
          22          21           1
SMALL
USER_CHARGES
 
@<TRIPOS>ATOM
       1    C1      17.273125   17.569010   24.754843 C.2        1 MOL1         0.6145
       2    O1      16.680991   16.592819   24.339054 O.co2      1 MOL1        -0.6735
       3    O2      17.448216   17.797730   25.935304 O.co2      1 MOL1        -0.6735
       4    C2      17.846362   18.550293   23.738629 C.3        1 MOL1        -0.1985
       5    H1      17.816083   19.553981   24.179469 H          1 MOL1         0.0740
       6    H2      17.184901   18.560276   22.863970 H          1 MOL1         0.0740
       7    C3      19.292443   18.197822   23.311118 C.3        1 MOL1        -0.1882
       8    H3      19.938726   18.178868   24.199640 H          1 MOL1         0.0742
       9    H4      19.308041   17.185693   22.883447 H          1 MOL1         0.0742
      10    C4      19.849633   19.205664   22.282459 C.3        1 MOL1        -0.1880
      11    H5      19.834789   20.216069   22.713407 H          1 MOL1         0.0742
      12    H6      19.193152   19.221849   21.402722 H          1 MOL1         0.0742
      13    C5      21.291908   18.847346   21.856185 C.3        1 MOL1        -0.1880
      14    H7      21.920066   18.765764   22.753790 H          1 MOL1         0.0742
      15    H8      21.301880   17.858066   21.378523 H          1 MOL1         0.0742
      16    C6      21.928120   19.887262   20.904809 C.3        1 MOL1        -0.1856
      17    H9      22.982529   19.621719   20.746871 H          1 MOL1         0.0742
      18    H10     21.925638   20.877089   21.381828 H          1 MOL1         0.0742
      19    C7      21.225750   19.970346   19.532227 C.3        1 MOL1        -0.2871
      20    H11     21.766509   20.654187   18.865248 H          1 MOL1         0.0754
      21    H12     20.198989   20.344534   19.629431 H          1 MOL1         0.0754
      22    H13     21.189570   18.985260   19.049079 H          1 MOL1         0.0754
@<TRIPOS>BOND
    1     1     2    1
    2     1     3    2
    3     1     4    1
    4     4     5    1
    5     4     6    1
    6     4     7    1
    7     7     8    1
    8     7     9    1
    9     7    10    1
   10    10    11    1
   11    10    12    1
   12    10    13    1
   13    13    14    1
   14    13    15    1
   15    13    16    1
   16    16    17    1
   17    16    18    1
   18    16    19    1
   19    19    20    1
   20    19    21    1
   21    19    22    1
@<TRIPOS>SUBSTRUCTURE
       1 MOL1            1 RESIDUE      1      MOL     
@<SCITEGIC>MOL_PROPERTY
VConf Rank
SciTegic.value.IntegerValue
643

@<SCITEGIC>MOL_PROPERTY
Conf_Id
SciTegic.value.IntegerValue
37

@<SCITEGIC>MOL_PROPERTY
Delta U+W
SciTegic.value.DoubleValue
-0.345

@<SCITEGIC>MOL_PROPERTY
U+W
SciTegic.value.DoubleValue
-53.504

@<SCITEGIC>MOL_PROPERTY
Grad RMS
SciTegic.value.DoubleValue
0.000000

@<SCITEGIC>MOL_PROPERTY
U
SciTegic.value.DoubleValue
6.751

@<SCITEGIC>MOL_PROPERTY
W
SciTegic.value.DoubleValue
-60.255

@<SCITEGIC>MOL_PROPERTY
W(PB)
SciTegic.value.DoubleValue
-62.592

@<SCITEGIC>MOL_PROPERTY
W(SA)
SciTegic.value.DoubleValue
2.336

@<SCITEGIC>MOL_PROPERTY
Valence
SciTegic.value.DoubleValue
7.602

@<SCITEGIC>MOL_PROPERTY
Coulomb
SciTegic.value.DoubleValue
-1.744

@<SCITEGIC>MOL_PROPERTY
VdW
SciTegic.value.DoubleValue
0.894

@<SCITEGIC>MOL_PROPERTY
VdW6
SciTegic.value.DoubleValue
-7.110

@<SCITEGIC>MOL_PROPERTY
VdW12
SciTegic.value.DoubleValue
8.004

@<SCITEGIC>MOL_PROPERTY
Bond
SciTegic.value.DoubleValue
0.131

@<SCITEGIC>MOL_PROPERTY
Angle
SciTegic.value.DoubleValue
2.489

@<SCITEGIC>MOL_PROPERTY
Pdih
SciTegic.value.DoubleValue
4.982

@<SCITEGIC>MOL_PROPERTY
Idih
SciTegic.value.DoubleValue
0.001

@<SCITEGIC>MOL_PROPERTY
Tether
SciTegic.value.DoubleValue
0.000

@<TRIPOS>MOLECULE
guest-s21_confgen4.mol2 : confsearch ligand conformer 644
          22          21           1
SMALL
USER_CHARGES
 
@<TRIPOS>ATOM
       1    C1      20.339437   22.289577   20.203903 C.2        1 MOL1         0.6145
       2    O1      21.488024   22.427963   19.832355 O.co2      1 MOL1        -0.6735
       3    O2      19.581739   23.217292   20.408101 O.co2      1 MOL1        -0.6735
       4    C2      19.827305   20.874571   20.448221 C.3        1 MOL1        -0.1985
       5    H1      20.327625   20.203978   19.739248 H          1 MOL1         0.0740
       6    H2      18.756361   20.854394   20.213024 H          1 MOL1         0.0740
       7    C3      20.064781   20.390866   21.900044 C.3        1 MOL1        -0.1882
       8    H3      21.139945   20.428690   22.123964 H          1 MOL1         0.0742
       9    H4      19.569064   21.080288   22.597518 H          1 MOL1         0.0742
      10    C4      19.537588   18.956529   22.121619 C.3        1 MOL1        -0.1880
      11    H5      20.033579   18.277873   21.415514 H          1 MOL1         0.0742
      12    H6      18.462313   18.922257   21.899211 H          1 MOL1         0.0742
      13    C5      19.780508   18.476963   23.571195 C.3        1 MOL1        -0.1880
      14    H7      20.858925   18.461513   23.780279 H          1 MOL1         0.0742
      15    H8      19.339119   19.203751   24.266817 H          1 MOL1         0.0742
      16    C6      19.176431   17.084633   23.867539 C.3        1 MOL1        -0.1856
      17    H9      18.096441   17.098014   23.665666 H          1 MOL1         0.0742
      18    H10     19.288941   16.872649   24.939751 H          1 MOL1         0.0742
      19    C7      19.841082   15.946148   23.063611 C.3        1 MOL1        -0.2871
      20    H11     20.926644   15.932044   23.226370 H          1 MOL1         0.0754
      21    H12     19.655190   16.053805   21.987712 H          1 MOL1         0.0754
      22    H13     19.440185   14.972548   23.373942 H          1 MOL1         0.0754
@<TRIPOS>BOND
    1     1     2    1
    2     1     3    2
    3     1     4    1
    4     4     5    1
    5     4     6    1
    6     4     7    1
    7     7     8    1
    8     7     9    1
    9     7    10    1
   10    10    11    1
   11    10    12    1
   12    10    13    1
   13    13    14    1
   14    13    15    1
   15    13    16    1
   16    16    17    1
   17    16    18    1
   18    16    19    1
   19    19    20    1
   20    19    21    1
   21    19    22    1
@<TRIPOS>SUBSTRUCTURE
       1 MOL1            1 RESIDUE      1      MOL     
@<SCITEGIC>MOL_PROPERTY
VConf Rank
SciTegic.value.IntegerValue
644

@<SCITEGIC>MOL_PROPERTY
Conf_Id
SciTegic.value.IntegerValue
38

@<SCITEGIC>MOL_PROPERTY
Delta U+W
SciTegic.value.DoubleValue
-0.439

@<SCITEGIC>MOL_PROPERTY
U+W
SciTegic.value.DoubleValue
-53.598

@<SCITEGIC>MOL_PROPERTY
Grad RMS
SciTegic.value.DoubleValue
0.000000

@<SCITEGIC>MOL_PROPERTY
U
SciTegic.value.DoubleValue
6.751

@<SCITEGIC>MOL_PROPERTY
W
SciTegic.value.DoubleValue
-60.350

@<SCITEGIC>MOL_PROPERTY
W(PB)
SciTegic.value.DoubleValue
-62.659

@<SCITEGIC>MOL_PROPERTY
W(SA)
SciTegic.value.DoubleValue
2.309

@<SCITEGIC>MOL_PROPERTY
Valence
SciTegic.value.DoubleValue
7.602

@<SCITEGIC>MOL_PROPERTY
Coulomb
SciTegic.value.DoubleValue
-1.744

@<SCITEGIC>MOL_PROPERTY
VdW
SciTegic.value.DoubleValue
0.893

@<SCITEGIC>MOL_PROPERTY
VdW6
SciTegic.value.DoubleValue
-7.110

@<SCITEGIC>MOL_PROPERTY
VdW12
SciTegic.value.DoubleValue
8.004

@<SCITEGIC>MOL_PROPERTY
Bond
SciTegic.value.DoubleValue
0.131

@<SCITEGIC>MOL_PROPERTY
Angle
SciTegic.value.DoubleValue
2.489

@<SCITEGIC>MOL_PROPERTY
Pdih
SciTegic.value.DoubleValue
4.981

@<SCITEGIC>MOL_PROPERTY
Idih
SciTegic.value.DoubleValue
0.001

@<SCITEGIC>MOL_PROPERTY
Tether
SciTegic.value.DoubleValue
0.000

@<TRIPOS>MOLECULE
guest-s21_confgen4.mol2 : confsearch ligand conformer 645
          22          21           1
SMALL
USER_CHARGES
 
@<TRIPOS>ATOM
       1    C1      19.242947   22.731540   22.211281 C.2        1 MOL1         0.6145
       2    O1      18.792518   23.342149   23.160402 O.co2      1 MOL1        -0.6735
       3    O2      19.205766   23.142163   21.068241 O.co2      1 MOL1        -0.6735
       4    C2      19.868875   21.364890   22.465785 C.3        1 MOL1        -0.1985
       5    H1      20.323819   21.379798   23.463392 H          1 MOL1         0.0740
       6    H2      20.678887   21.230003   21.740425 H          1 MOL1         0.0740
       7    C3      18.842238   20.206831   22.363176 C.3        1 MOL1        -0.1882
       8    H3      17.998582   20.425519   23.032405 H          1 MOL1         0.0742
       9    H4      18.429087   20.170833   21.345677 H          1 MOL1         0.0742
      10    C4      19.426058   18.824132   22.740027 C.3        1 MOL1        -0.1880
      11    H5      18.598349   18.104402   22.774886 H          1 MOL1         0.0742
      12    H6      19.845674   18.865941   23.754346 H          1 MOL1         0.0742
      13    C5      20.503881   18.320453   21.748751 C.3        1 MOL1        -0.1880
      14    H7      20.084639   18.280406   20.734190 H          1 MOL1         0.0742
      15    H8      21.333620   19.037728   21.715169 H          1 MOL1         0.0742
      16    C6      21.083918   16.936503   22.123392 C.3        1 MOL1        -0.1856
      17    H9      21.494073   16.969230   23.142212 H          1 MOL1         0.0742
      18    H10     21.928925   16.717530   21.456115 H          1 MOL1         0.0742
      19    C7      20.056252   15.789210   22.012598 C.3        1 MOL1        -0.2871
      20    H11     19.250404   15.899047   22.748783 H          1 MOL1         0.0754
      21    H12     20.541222   14.821378   22.194321 H          1 MOL1         0.0754
      22    H13     19.607224   15.759154   21.011301 H          1 MOL1         0.0754
@<TRIPOS>BOND
    1     1     2    1
    2     1     3    2
    3     1     4    1
    4     4     5    1
    5     4     6    1
    6     4     7    1
    7     7     8    1
    8     7     9    1
    9     7    10    1
   10    10    11    1
   11    10    12    1
   12    10    13    1
   13    13    14    1
   14    13    15    1
   15    13    16    1
   16    16    17    1
   17    16    18    1
   18    16    19    1
   19    19    20    1
   20    19    21    1
   21    19    22    1
@<TRIPOS>SUBSTRUCTURE
       1 MOL1            1 RESIDUE      1      MOL     
@<SCITEGIC>MOL_PROPERTY
VConf Rank
SciTegic.value.IntegerValue
645

@<SCITEGIC>MOL_PROPERTY
Conf_Id
SciTegic.value.IntegerValue
60

@<SCITEGIC>MOL_PROPERTY
Delta U+W
SciTegic.value.DoubleValue
0.386

@<SCITEGIC>MOL_PROPERTY
U+W
SciTegic.value.DoubleValue
-52.773

@<SCITEGIC>MOL_PROPERTY
Grad RMS
SciTegic.value.DoubleValue
0.000000

@<SCITEGIC>MOL_PROPERTY
U
SciTegic.value.DoubleValue
7.689

@<SCITEGIC>MOL_PROPERTY
W
SciTegic.value.DoubleValue
-60.463

@<SCITEGIC>MOL_PROPERTY
W(PB)
SciTegic.value.DoubleValue
-62.772

@<SCITEGIC>MOL_PROPERTY
W(SA)
SciTegic.value.DoubleValue
2.309

@<SCITEGIC>MOL_PROPERTY
Valence
SciTegic.value.DoubleValue
8.197

@<SCITEGIC>MOL_PROPERTY
Coulomb
SciTegic.value.DoubleValue
-1.561

@<SCITEGIC>MOL_PROPERTY
VdW
SciTegic.value.DoubleValue
1.053

@<SCITEGIC>MOL_PROPERTY
VdW6
SciTegic.value.DoubleValue
-7.737

@<SCITEGIC>MOL_PROPERTY
VdW12
SciTegic.value.DoubleValue
8.790

@<SCITEGIC>MOL_PROPERTY
Bond
SciTegic.value.DoubleValue
0.181

@<SCITEGIC>MOL_PROPERTY
Angle
SciTegic.value.DoubleValue
2.780

@<SCITEGIC>MOL_PROPERTY
Pdih
SciTegic.value.DoubleValue
5.235

@<SCITEGIC>MOL_PROPERTY
Idih
SciTegic.value.DoubleValue
0.001

@<SCITEGIC>MOL_PROPERTY
Tether
SciTegic.value.DoubleValue
0.000

@<TRIPOS>MOLECULE
guest-s21_confgen4.mol2 : confsearch ligand conformer 646
          22          21           1
SMALL
USER_CHARGES
 
@<TRIPOS>ATOM
       1    C1      19.941056   20.167575   25.792523 C.2        1 MOL1         0.6145
       2    O1      20.360656   21.307402   25.828065 O.co2      1 MOL1        -0.6735
       3    O2      19.907572   19.432614   26.759618 O.co2      1 MOL1        -0.6735
       4    C2      19.450567   19.621836   24.456156 C.3        1 MOL1        -0.1985
       5    H1      19.007049   20.454871   23.899552 H          1 MOL1         0.0740
       6    H2      18.649297   18.900675   24.656927 H          1 MOL1         0.0740
       7    C3      20.580040   18.950902   23.631686 C.3        1 MOL1        -0.1882
       8    H3      21.353485   19.694434   23.394539 H          1 MOL1         0.0742
       9    H4      21.064960   18.188168   24.256615 H          1 MOL1         0.0742
      10    C4      20.083071   18.279252   22.329139 C.3        1 MOL1        -0.1880
      11    H5      19.304331   17.542561   22.568969 H          1 MOL1         0.0742
      12    H6      20.920486   17.717418   21.896235 H          1 MOL1         0.0742
      13    C5      19.545101   19.287082   21.283728 C.3        1 MOL1        -0.1880
      14    H7      18.705590   19.847415   21.714223 H          1 MOL1         0.0742
      15    H8      20.323315   20.024841   21.045408 H          1 MOL1         0.0742
      16    C6      19.052731   18.615705   19.980294 C.3        1 MOL1        -0.1856
      17    H9      18.565645   19.376981   19.355432 H          1 MOL1         0.0742
      18    H10     18.282147   17.868622   20.215580 H          1 MOL1         0.0742
      19    C7      20.185040   17.956055   19.163354 C.3        1 MOL1        -0.2871
      20    H11     20.984044   18.676796   18.945983 H          1 MOL1         0.0754
      21    H12     19.799059   17.581154   18.206596 H          1 MOL1         0.0754
      22    H13     20.624213   17.105524   19.699215 H          1 MOL1         0.0754
@<TRIPOS>BOND
    1     1     2    1
    2     1     3    2
    3     1     4    1
    4     4     5    1
    5     4     6    1
    6     4     7    1
    7     7     8    1
    8     7     9    1
    9     7    10    1
   10    10    11    1
   11    10    12    1
   12    10    13    1
   13    13    14    1
   14    13    15    1
   15    13    16    1
   16    16    17    1
   17    16    18    1
   18    16    19    1
   19    19    20    1
   20    19    21    1
   21    19    22    1
@<TRIPOS>SUBSTRUCTURE
       1 MOL1            1 RESIDUE      1      MOL     
@<SCITEGIC>MOL_PROPERTY
VConf Rank
SciTegic.value.IntegerValue
646

@<SCITEGIC>MOL_PROPERTY
Conf_Id
SciTegic.value.IntegerValue
28

@<SCITEGIC>MOL_PROPERTY
Delta U+W
SciTegic.value.DoubleValue
0.351

@<SCITEGIC>MOL_PROPERTY
U+W
SciTegic.value.DoubleValue
-52.808

@<SCITEGIC>MOL_PROPERTY
Grad RMS
SciTegic.value.DoubleValue
0.000000

@<SCITEGIC>MOL_PROPERTY
U
SciTegic.value.DoubleValue
7.689

@<SCITEGIC>MOL_PROPERTY
W
SciTegic.value.DoubleValue
-60.498

@<SCITEGIC>MOL_PROPERTY
W(PB)
SciTegic.value.DoubleValue
-62.768

@<SCITEGIC>MOL_PROPERTY
W(SA)
SciTegic.value.DoubleValue
2.270

@<SCITEGIC>MOL_PROPERTY
Valence
SciTegic.value.DoubleValue
8.197

@<SCITEGIC>MOL_PROPERTY
Coulomb
SciTegic.value.DoubleValue
-1.561

@<SCITEGIC>MOL_PROPERTY
VdW
SciTegic.value.DoubleValue
1.053

@<SCITEGIC>MOL_PROPERTY
VdW6
SciTegic.value.DoubleValue
-7.737

@<SCITEGIC>MOL_PROPERTY
VdW12
SciTegic.value.DoubleValue
8.791

@<SCITEGIC>MOL_PROPERTY
Bond
SciTegic.value.DoubleValue
0.181

@<SCITEGIC>MOL_PROPERTY
Angle
SciTegic.value.DoubleValue
2.780

@<SCITEGIC>MOL_PROPERTY
Pdih
SciTegic.value.DoubleValue
5.235

@<SCITEGIC>MOL_PROPERTY
Idih
SciTegic.value.DoubleValue
0.001

@<SCITEGIC>MOL_PROPERTY
Tether
SciTegic.value.DoubleValue
0.000

@<TRIPOS>MOLECULE
guest-s21_confgen4.mol2 : confsearch ligand conformer 647
          22          21           1
SMALL
USER_CHARGES
 
@<TRIPOS>ATOM
       1    C1      21.517264   17.603859   25.383621 C.2        1 MOL1         0.6145
       2    O1      21.204454   18.144094   26.426102 O.co2      1 MOL1        -0.6735
       3    O2      21.644910   16.401787   25.260390 O.co2      1 MOL1        -0.6735
       4    C2      21.742648   18.481298   24.157397 C.3        1 MOL1        -0.1985
       5    H1      22.510094   18.006038   23.534657 H          1 MOL1         0.0740
       6    H2      22.148891   19.441938   24.496149 H          1 MOL1         0.0740
       7    C3      20.450916   18.706961   23.333510 C.3        1 MOL1        -0.1882
       8    H3      20.053180   17.731639   23.023635 H          1 MOL1         0.0742
       9    H4      19.689945   19.175015   23.973162 H          1 MOL1         0.0742
      10    C4      20.709137   19.595302   22.094465 C.3        1 MOL1        -0.1880
      11    H5      21.430825   19.102421   21.428714 H          1 MOL1         0.0742
      12    H6      21.177473   20.534292   22.419922 H          1 MOL1         0.0742
      13    C5      19.424607   19.937508   21.302987 C.3        1 MOL1        -0.1880
      14    H7      18.704223   20.434061   21.967377 H          1 MOL1         0.0742
      15    H8      19.680816   20.666876   20.522405 H          1 MOL1         0.0742
      16    C6      18.761792   18.707917   20.641870 C.3        1 MOL1        -0.1856
      17    H9      18.426502   17.999508   21.410697 H          1 MOL1         0.0742
      18    H10     19.497150   18.180805   20.018486 H          1 MOL1         0.0742
      19    C7      17.553547   19.115067   19.774641 C.3        1 MOL1        -0.2871
      20    H11     17.859117   19.795300   18.968871 H          1 MOL1         0.0754
      21    H12     16.789287   19.620829   20.379205 H          1 MOL1         0.0754
      22    H13     17.092119   18.231377   19.315026 H          1 MOL1         0.0754
@<TRIPOS>BOND
    1     1     2    1
    2     1     3    2
    3     1     4    1
    4     4     5    1
    5     4     6    1
    6     4     7    1
    7     7     8    1
    8     7     9    1
    9     7    10    1
   10    10    11    1
   11    10    12    1
   12    10    13    1
   13    13    14    1
   14    13    15    1
   15    13    16    1
   16    16    17    1
   17    16    18    1
   18    16    19    1
   19    19    20    1
   20    19    21    1
   21    19    22    1
@<TRIPOS>SUBSTRUCTURE
       1 MOL1            1 RESIDUE      1      MOL     
@<SCITEGIC>MOL_PROPERTY
VConf Rank
SciTegic.value.IntegerValue
647

@<SCITEGIC>MOL_PROPERTY
Conf_Id
SciTegic.value.IntegerValue
50

@<SCITEGIC>MOL_PROPERTY
Delta U+W
SciTegic.value.DoubleValue
-0.486

@<SCITEGIC>MOL_PROPERTY
U+W
SciTegic.value.DoubleValue
-53.646

@<SCITEGIC>MOL_PROPERTY
Grad RMS
SciTegic.value.DoubleValue
0.000000

@<SCITEGIC>MOL_PROPERTY
U
SciTegic.value.DoubleValue
7.026

@<SCITEGIC>MOL_PROPERTY
W
SciTegic.value.DoubleValue
-60.672

@<SCITEGIC>MOL_PROPERTY
W(PB)
SciTegic.value.DoubleValue
-62.964

@<SCITEGIC>MOL_PROPERTY
W(SA)
SciTegic.value.DoubleValue
2.292

@<SCITEGIC>MOL_PROPERTY
Valence
SciTegic.value.DoubleValue
7.637

@<SCITEGIC>MOL_PROPERTY
Coulomb
SciTegic.value.DoubleValue
-1.488

@<SCITEGIC>MOL_PROPERTY
VdW
SciTegic.value.DoubleValue
0.877

@<SCITEGIC>MOL_PROPERTY
VdW6
SciTegic.value.DoubleValue
-7.165

@<SCITEGIC>MOL_PROPERTY
VdW12
SciTegic.value.DoubleValue
8.043

@<SCITEGIC>MOL_PROPERTY
Bond
SciTegic.value.DoubleValue
0.134

@<SCITEGIC>MOL_PROPERTY
Angle
SciTegic.value.DoubleValue
2.513

@<SCITEGIC>MOL_PROPERTY
Pdih
SciTegic.value.DoubleValue
4.990

@<SCITEGIC>MOL_PROPERTY
Idih
SciTegic.value.DoubleValue
0.001

@<SCITEGIC>MOL_PROPERTY
Tether
SciTegic.value.DoubleValue
0.000

@<TRIPOS>MOLECULE
guest-s21_confgen4.mol2 : confsearch ligand conformer 648
          22          21           1
SMALL
USER_CHARGES
 
@<TRIPOS>ATOM
       1    C1      17.329058   20.219283   19.671843 C.2        1 MOL1         0.6145
       2    O1      17.501225   21.341531   19.238960 O.co2      1 MOL1        -0.6735
       3    O2      16.236840   19.765725   19.950771 O.co2      1 MOL1        -0.6735
       4    C2      18.553148   19.338734   19.896711 C.3        1 MOL1        -0.1985
       5    H1      19.300853   19.594517   19.136365 H          1 MOL1         0.0740
       6    H2      18.259263   18.296260   19.724874 H          1 MOL1         0.0740
       7    C3      19.155708   19.496817   21.314536 C.3        1 MOL1        -0.1882
       8    H3      19.436356   20.547069   21.474260 H          1 MOL1         0.0742
       9    H4      18.383672   19.255031   22.056809 H          1 MOL1         0.0742
      10    C4      20.391813   18.589981   21.516437 C.3        1 MOL1        -0.1880
      11    H5      21.118656   18.794573   20.718437 H          1 MOL1         0.0742
      12    H6      20.100261   17.536241   21.408652 H          1 MOL1         0.0742
      13    C5      21.091523   18.796595   22.880723 C.3        1 MOL1        -0.1880
      14    H7      22.021214   18.211308   22.887103 H          1 MOL1         0.0742
      15    H8      21.386787   19.849404   22.987234 H          1 MOL1         0.0742
      16    C6      20.224885   18.373853   24.088414 C.3        1 MOL1        -0.1856
      17    H9      19.885632   17.337179   23.956426 H          1 MOL1         0.0742
      18    H10     19.325445   19.000716   24.146803 H          1 MOL1         0.0742
      19    C7      21.005115   18.492443   25.413139 C.3        1 MOL1        -0.2871
      20    H11     21.333287   19.526116   25.584049 H          1 MOL1         0.0754
      21    H12     21.893428   17.847307   25.405559 H          1 MOL1         0.0754
      22    H13     20.375698   18.192072   26.260889 H          1 MOL1         0.0754
@<TRIPOS>BOND
    1     1     2    1
    2     1     3    2
    3     1     4    1
    4     4     5    1
    5     4     6    1
    6     4     7    1
    7     7     8    1
    8     7     9    1
    9     7    10    1
   10    10    11    1
   11    10    12    1
   12    10    13    1
   13    13    14    1
   14    13    15    1
   15    13    16    1
   16    16    17    1
   17    16    18    1
   18    16    19    1
   19    19    20    1
   20    19    21    1
   21    19    22    1
@<TRIPOS>SUBSTRUCTURE
       1 MOL1            1 RESIDUE      1      MOL     
@<SCITEGIC>MOL_PROPERTY
VConf Rank
SciTegic.value.IntegerValue
648

@<SCITEGIC>MOL_PROPERTY
Conf_Id
SciTegic.value.IntegerValue
51

@<SCITEGIC>MOL_PROPERTY
Delta U+W
SciTegic.value.DoubleValue
-0.517

@<SCITEGIC>MOL_PROPERTY
U+W
SciTegic.value.DoubleValue
-53.677

@<SCITEGIC>MOL_PROPERTY
Grad RMS
SciTegic.value.DoubleValue
0.000000

@<SCITEGIC>MOL_PROPERTY
U
SciTegic.value.DoubleValue
7.026

@<SCITEGIC>MOL_PROPERTY
W
SciTegic.value.DoubleValue
-60.703

@<SCITEGIC>MOL_PROPERTY
W(PB)
SciTegic.value.DoubleValue
-63.007

@<SCITEGIC>MOL_PROPERTY
W(SA)
SciTegic.value.DoubleValue
2.304

@<SCITEGIC>MOL_PROPERTY
Valence
SciTegic.value.DoubleValue
7.638

@<SCITEGIC>MOL_PROPERTY
Coulomb
SciTegic.value.DoubleValue
-1.488

@<SCITEGIC>MOL_PROPERTY
VdW
SciTegic.value.DoubleValue
0.877

@<SCITEGIC>MOL_PROPERTY
VdW6
SciTegic.value.DoubleValue
-7.165

@<SCITEGIC>MOL_PROPERTY
VdW12
SciTegic.value.DoubleValue
8.042

@<SCITEGIC>MOL_PROPERTY
Bond
SciTegic.value.DoubleValue
0.134

@<SCITEGIC>MOL_PROPERTY
Angle
SciTegic.value.DoubleValue
2.513

@<SCITEGIC>MOL_PROPERTY
Pdih
SciTegic.value.DoubleValue
4.990

@<SCITEGIC>MOL_PROPERTY
Idih
SciTegic.value.DoubleValue
0.001

@<SCITEGIC>MOL_PROPERTY
Tether
SciTegic.value.DoubleValue
0.000

@<TRIPOS>MOLECULE
guest-s21_confgen4.mol2 : confsearch ligand conformer 649
          22          21           1
SMALL
USER_CHARGES
 
@<TRIPOS>ATOM
       1    C1      17.342280   20.867440   23.408523 C.2        1 MOL1         0.6145
       2    O1      16.878848   20.522835   24.477812 O.co2      1 MOL1        -0.6735
       3    O2      17.853359   21.952992   23.215734 O.co2      1 MOL1        -0.6735
       4    C2      17.259777   19.888875   22.240303 C.3        1 MOL1        -0.1985
       5    H1      17.390075   20.447602   21.305556 H          1 MOL1         0.0740
       6    H2      16.242654   19.479842   22.226381 H          1 MOL1         0.0740
       7    C3      18.284213   18.727138   22.317056 C.3        1 MOL1        -0.1882
       8    H3      18.160079   18.194847   23.270424 H          1 MOL1         0.0742
       9    H4      18.063471   18.004075   21.520189 H          1 MOL1         0.0742
      10    C4      19.744391   19.212104   22.174663 C.3        1 MOL1        -0.1880
      11    H5      19.978289   19.923274   22.978987 H          1 MOL1         0.0742
      12    H6      19.859983   19.754769   21.226418 H          1 MOL1         0.0742
      13    C5      20.744380   18.036860   22.222328 C.3        1 MOL1        -0.1880
      14    H7      20.628195   17.494730   23.170855 H          1 MOL1         0.0742
      15    H8      20.514335   17.325682   21.417117 H          1 MOL1         0.0742
      16    C6      22.202865   18.520476   22.080968 C.3        1 MOL1        -0.1856
      17    H9      22.437188   19.230824   22.885953 H          1 MOL1         0.0742
      18    H10     22.323346   19.061876   21.132373 H          1 MOL1         0.0742
      19    C7      23.198589   17.344245   22.129662 C.3        1 MOL1        -0.2871
      20    H11     23.121516   16.803594   23.082110 H          1 MOL1         0.0754
      21    H12     24.230004   17.706043   22.027830 H          1 MOL1         0.0754
      22    H13     23.006797   16.633302   21.315309 H          1 MOL1         0.0754
@<TRIPOS>BOND
    1     1     2    1
    2     1     3    2
    3     1     4    1
    4     4     5    1
    5     4     6    1
    6     4     7    1
    7     7     8    1
    8     7     9    1
    9     7    10    1
   10    10    11    1
   11    10    12    1
   12    10    13    1
   13    13    14    1
   14    13    15    1
   15    13    16    1
   16    16    17    1
   17    16    18    1
   18    16    19    1
   19    19    20    1
   20    19    21    1
   21    19    22    1
@<TRIPOS>SUBSTRUCTURE
       1 MOL1            1 RESIDUE      1      MOL     
@<SCITEGIC>MOL_PROPERTY
VConf Rank
SciTegic.value.IntegerValue
649

@<SCITEGIC>MOL_PROPERTY
Conf_Id
SciTegic.value.IntegerValue
43

@<SCITEGIC>MOL_PROPERTY
Delta U+W
SciTegic.value.DoubleValue
-0.129

@<SCITEGIC>MOL_PROPERTY
U+W
SciTegic.value.DoubleValue
-53.289

@<SCITEGIC>MOL_PROPERTY
Grad RMS
SciTegic.value.DoubleValue
0.000000

@<SCITEGIC>MOL_PROPERTY
U
SciTegic.value.DoubleValue
7.937

@<SCITEGIC>MOL_PROPERTY
W
SciTegic.value.DoubleValue
-61.225

@<SCITEGIC>MOL_PROPERTY
W(PB)
SciTegic.value.DoubleValue
-63.523

@<SCITEGIC>MOL_PROPERTY
W(SA)
SciTegic.value.DoubleValue
2.297

@<SCITEGIC>MOL_PROPERTY
Valence
SciTegic.value.DoubleValue
7.358

@<SCITEGIC>MOL_PROPERTY
Coulomb
SciTegic.value.DoubleValue
-0.022

@<SCITEGIC>MOL_PROPERTY
VdW
SciTegic.value.DoubleValue
0.601

@<SCITEGIC>MOL_PROPERTY
VdW6
SciTegic.value.DoubleValue
-7.363

@<SCITEGIC>MOL_PROPERTY
VdW12
SciTegic.value.DoubleValue
7.964

@<SCITEGIC>MOL_PROPERTY
Bond
SciTegic.value.DoubleValue
0.121

@<SCITEGIC>MOL_PROPERTY
Angle
SciTegic.value.DoubleValue
2.425

@<SCITEGIC>MOL_PROPERTY
Pdih
SciTegic.value.DoubleValue
4.811

@<SCITEGIC>MOL_PROPERTY
Idih
SciTegic.value.DoubleValue
0.000

@<SCITEGIC>MOL_PROPERTY
Tether
SciTegic.value.DoubleValue
0.000

@<TRIPOS>MOLECULE
guest-s21_confgen4.mol2 : confsearch ligand conformer 650
          22          21           1
SMALL
USER_CHARGES
 
@<TRIPOS>ATOM
       1    C1      18.074517   21.489189   24.236750 C.2        1 MOL1         0.6145
       2    O1      17.302948   22.166009   23.585983 O.co2      1 MOL1        -0.6735
       3    O2      19.041533   21.942118   24.816861 O.co2      1 MOL1        -0.6735
       4    C2      17.801769   19.991525   24.345102 C.3        1 MOL1        -0.1985
       5    H1      16.734558   19.867544   24.563575 H          1 MOL1         0.0740
       6    H2      18.350547   19.597209   25.208966 H          1 MOL1         0.0740
       7    C3      18.165577   19.190102   23.068246 C.3        1 MOL1        -0.1882
       8    H3      17.811227   18.156754   23.183008 H          1 MOL1         0.0742
       9    H4      17.630159   19.614319   22.207421 H          1 MOL1         0.0742
      10    C4      19.684753   19.179278   22.786152 C.3        1 MOL1        -0.1880
      11    H5      20.216293   18.766610   23.654590 H          1 MOL1         0.0742
      12    H6      20.043827   20.209212   22.653071 H          1 MOL1         0.0742
      13    C5      20.027012   18.350388   21.529467 C.3        1 MOL1        -0.1880
      14    H7      19.671467   17.319236   21.661271 H          1 MOL1         0.0742
      15    H8      19.495144   18.763698   20.661481 H          1 MOL1         0.0742
      16    C6      21.543905   18.339754   21.246674 C.3        1 MOL1        -0.1856
      17    H9      22.079215   17.925358   22.112227 H          1 MOL1         0.0742
      18    H10     21.902862   19.369628   21.112459 H          1 MOL1         0.0742
      19    C7      21.881803   17.511624   19.990734 C.3        1 MOL1        -0.2871
      20    H11     21.561624   16.468277   20.110348 H          1 MOL1         0.0754
      21    H12     22.963681   17.514936   19.804687 H          1 MOL1         0.0754
      22    H13     21.383966   17.923469   19.103072 H          1 MOL1         0.0754
@<TRIPOS>BOND
    1     1     2    1
    2     1     3    2
    3     1     4    1
    4     4     5    1
    5     4     6    1
    6     4     7    1
    7     7     8    1
    8     7     9    1
    9     7    10    1
   10    10    11    1
   11    10    12    1
   12    10    13    1
   13    13    14    1
   14    13    15    1
   15    13    16    1
   16    16    17    1
   17    16    18    1
   18    16    19    1
   19    19    20    1
   20    19    21    1
   21    19    22    1
@<TRIPOS>SUBSTRUCTURE
       1 MOL1            1 RESIDUE      1      MOL     
@<SCITEGIC>MOL_PROPERTY
VConf Rank
SciTegic.value.IntegerValue
650

@<SCITEGIC>MOL_PROPERTY
Conf_Id
SciTegic.value.IntegerValue
44

@<SCITEGIC>MOL_PROPERTY
Delta U+W
SciTegic.value.DoubleValue
-0.155

@<SCITEGIC>MOL_PROPERTY
U+W
SciTegic.value.DoubleValue
-53.314

@<SCITEGIC>MOL_PROPERTY
Grad RMS
SciTegic.value.DoubleValue
0.000000

@<SCITEGIC>MOL_PROPERTY
U
SciTegic.value.DoubleValue
7.937

@<SCITEGIC>MOL_PROPERTY
W
SciTegic.value.DoubleValue
-61.252

@<SCITEGIC>MOL_PROPERTY
W(PB)
SciTegic.value.DoubleValue
-63.556

@<SCITEGIC>MOL_PROPERTY
W(SA)
SciTegic.value.DoubleValue
2.304

@<SCITEGIC>MOL_PROPERTY
Valence
SciTegic.value.DoubleValue
7.358

@<SCITEGIC>MOL_PROPERTY
Coulomb
SciTegic.value.DoubleValue
-0.021

@<SCITEGIC>MOL_PROPERTY
VdW
SciTegic.value.DoubleValue
0.600

@<SCITEGIC>MOL_PROPERTY
VdW6
SciTegic.value.DoubleValue
-7.363

@<SCITEGIC>MOL_PROPERTY
VdW12
SciTegic.value.DoubleValue
7.964

@<SCITEGIC>MOL_PROPERTY
Bond
SciTegic.value.DoubleValue
0.121

@<SCITEGIC>MOL_PROPERTY
Angle
SciTegic.value.DoubleValue
2.425

@<SCITEGIC>MOL_PROPERTY
Pdih
SciTegic.value.DoubleValue
4.811

@<SCITEGIC>MOL_PROPERTY
Idih
SciTegic.value.DoubleValue
0.001

@<SCITEGIC>MOL_PROPERTY
Tether
SciTegic.value.DoubleValue
0.000

@<TRIPOS>MOLECULE
guest-s21_confgen4.mol2 : confsearch ligand conformer 651
          22          21           1
SMALL
USER_CHARGES
 
@<TRIPOS>ATOM
       1    C1      21.949017   20.784147   24.440617 C.2        1 MOL1         0.6145
       2    O1      22.504762   20.035868   25.220456 O.co2      1 MOL1        -0.6735
       3    O2      21.389397   21.809505   24.775778 O.co2      1 MOL1        -0.6735
       4    C2      21.972938   20.424405   22.957605 C.3        1 MOL1        -0.1985
       5    H1      22.999656   20.131140   22.708857 H          1 MOL1         0.0740
       6    H2      21.750341   21.326177   22.374384 H          1 MOL1         0.0740
       7    C3      20.999706   19.281274   22.568120 C.3        1 MOL1        -0.1882
       8    H3      21.200615   18.993227   21.528491 H          1 MOL1         0.0742
       9    H4      21.208482   18.398614   23.188384 H          1 MOL1         0.0742
      10    C4      19.514324   19.688967   22.718573 C.3        1 MOL1        -0.1880
      11    H5      19.296986   20.545351   22.065753 H          1 MOL1         0.0742
      12    H6      19.337129   20.031826   23.747185 H          1 MOL1         0.0742
      13    C5      18.525186   18.539298   22.412483 C.3        1 MOL1        -0.1880
      14    H7      18.743037   17.683044   23.065389 H          1 MOL1         0.0742
      15    H8      17.511477   18.875622   22.669746 H          1 MOL1         0.0742
      16    C6      18.542459   18.086209   20.935040 C.3        1 MOL1        -0.1856
      17    H9      19.525399   17.670430   20.677801 H          1 MOL1         0.0742
      18    H10     18.378776   18.952749   20.279671 H          1 MOL1         0.0742
      19    C7      17.460832   17.022865   20.657332 C.3        1 MOL1        -0.2871
      20    H11     17.616475   16.132717   21.280868 H          1 MOL1         0.0754
      21    H12     17.487965   16.709085   19.605729 H          1 MOL1         0.0754
      22    H13     16.458098   17.417634   20.867183 H          1 MOL1         0.0754
@<TRIPOS>BOND
    1     1     2    1
    2     1     3    2
    3     1     4    1
    4     4     5    1
    5     4     6    1
    6     4     7    1
    7     7     8    1
    8     7     9    1
    9     7    10    1
   10    10    11    1
   11    10    12    1
   12    10    13    1
   13    13    14    1
   14    13    15    1
   15    13    16    1
   16    16    17    1
   17    16    18    1
   18    16    19    1
   19    19    20    1
   20    19    21    1
   21    19    22    1
@<TRIPOS>SUBSTRUCTURE
       1 MOL1            1 RESIDUE      1      MOL     
@<SCITEGIC>MOL_PROPERTY
VConf Rank
SciTegic.value.IntegerValue
651

@<SCITEGIC>MOL_PROPERTY
Conf_Id
SciTegic.value.IntegerValue
53

@<SCITEGIC>MOL_PROPERTY
Delta U+W
SciTegic.value.DoubleValue
0.723

@<SCITEGIC>MOL_PROPERTY
U+W
SciTegic.value.DoubleValue
-52.436

@<SCITEGIC>MOL_PROPERTY
Grad RMS
SciTegic.value.DoubleValue
0.000000

@<SCITEGIC>MOL_PROPERTY
U
SciTegic.value.DoubleValue
8.587

@<SCITEGIC>MOL_PROPERTY
W
SciTegic.value.DoubleValue
-61.022

@<SCITEGIC>MOL_PROPERTY
W(PB)
SciTegic.value.DoubleValue
-63.285

@<SCITEGIC>MOL_PROPERTY
W(SA)
SciTegic.value.DoubleValue
2.263

@<SCITEGIC>MOL_PROPERTY
Valence
SciTegic.value.DoubleValue
7.933

@<SCITEGIC>MOL_PROPERTY
Coulomb
SciTegic.value.DoubleValue
-0.124

@<SCITEGIC>MOL_PROPERTY
VdW
SciTegic.value.DoubleValue
0.778

@<SCITEGIC>MOL_PROPERTY
VdW6
SciTegic.value.DoubleValue
-7.981

@<SCITEGIC>MOL_PROPERTY
VdW12
SciTegic.value.DoubleValue
8.759

@<SCITEGIC>MOL_PROPERTY
Bond
SciTegic.value.DoubleValue
0.160

@<SCITEGIC>MOL_PROPERTY
Angle
SciTegic.value.DoubleValue
2.698

@<SCITEGIC>MOL_PROPERTY
Pdih
SciTegic.value.DoubleValue
5.074

@<SCITEGIC>MOL_PROPERTY
Idih
SciTegic.value.DoubleValue
0.001

@<SCITEGIC>MOL_PROPERTY
Tether
SciTegic.value.DoubleValue
0.000

@<TRIPOS>MOLECULE
guest-s21_confgen4.mol2 : confsearch ligand conformer 652
          22          21           1
SMALL
USER_CHARGES
 
@<TRIPOS>ATOM
       1    C1      22.272807   16.780301   22.269788 C.2        1 MOL1         0.6145
       2    O1      22.331012   16.209368   23.340870 O.co2      1 MOL1        -0.6735
       3    O2      22.982035   16.505998   21.321982 O.co2      1 MOL1        -0.6735
       4    C2      21.238086   17.886611   22.098232 C.3        1 MOL1        -0.1985
       5    H1      21.636787   18.619054   21.386300 H          1 MOL1         0.0740
       6    H2      21.128808   18.390634   23.065056 H          1 MOL1         0.0740
       7    C3      19.866799   17.355397   21.609850 C.3        1 MOL1        -0.1882
       8    H3      20.026798   16.739351   20.714132 H          1 MOL1         0.0742
       9    H4      19.446575   16.685315   22.372515 H          1 MOL1         0.0742
      10    C4      18.838125   18.462293   21.267396 C.3        1 MOL1        -0.1880
      11    H5      17.932759   17.966922   20.890743 H          1 MOL1         0.0742
      12    H6      19.208730   19.077947   20.436385 H          1 MOL1         0.0742
      13    C5      18.434132   19.360843   22.463684 C.3        1 MOL1        -0.1880
      14    H7      17.367924   19.608155   22.368652 H          1 MOL1         0.0742
      15    H8      18.535681   18.803994   23.405263 H          1 MOL1         0.0742
      16    C6      19.229912   20.684776   22.532161 C.3        1 MOL1        -0.1856
      17    H9      19.072218   21.256468   21.607231 H          1 MOL1         0.0742
      18    H10     20.306198   20.485730   22.598155 H          1 MOL1         0.0742
      19    C7      18.798775   21.541637   23.739323 C.3        1 MOL1        -0.2871
      20    H11     17.731660   21.793217   23.681839 H          1 MOL1         0.0754
      21    H12     19.367134   22.480281   23.770145 H          1 MOL1         0.0754
      22    H13     18.975033   21.007574   24.682227 H          1 MOL1         0.0754
@<TRIPOS>BOND
    1     1     2    1
    2     1     3    2
    3     1     4    1
    4     4     5    1
    5     4     6    1
    6     4     7    1
    7     7     8    1
    8     7     9    1
    9     7    10    1
   10    10    11    1
   11    10    12    1
   12    10    13    1
   13    13    14    1
   14    13    15    1
   15    13    16    1
   16    16    17    1
   17    16    18    1
   18    16    19    1
   19    19    20    1
   20    19    21    1
   21    19    22    1
@<TRIPOS>SUBSTRUCTURE
       1 MOL1            1 RESIDUE      1      MOL     
@<SCITEGIC>MOL_PROPERTY
VConf Rank
SciTegic.value.IntegerValue
652

@<SCITEGIC>MOL_PROPERTY
Conf_Id
SciTegic.value.IntegerValue
5

@<SCITEGIC>MOL_PROPERTY
Delta U+W
SciTegic.value.DoubleValue
2.167

@<SCITEGIC>MOL_PROPERTY
U+W
SciTegic.value.DoubleValue
-50.993

@<SCITEGIC>MOL_PROPERTY
Grad RMS
SciTegic.value.DoubleValue
0.000000

@<SCITEGIC>MOL_PROPERTY
U
SciTegic.value.DoubleValue
10.045

@<SCITEGIC>MOL_PROPERTY
W
SciTegic.value.DoubleValue
-61.037

@<SCITEGIC>MOL_PROPERTY
W(PB)
SciTegic.value.DoubleValue
-63.303

@<SCITEGIC>MOL_PROPERTY
W(SA)
SciTegic.value.DoubleValue
2.266

@<SCITEGIC>MOL_PROPERTY
Valence
SciTegic.value.DoubleValue
10.100

@<SCITEGIC>MOL_PROPERTY
Coulomb
SciTegic.value.DoubleValue
-0.883

@<SCITEGIC>MOL_PROPERTY
VdW
SciTegic.value.DoubleValue
0.828

@<SCITEGIC>MOL_PROPERTY
VdW6
SciTegic.value.DoubleValue
-8.177

@<SCITEGIC>MOL_PROPERTY
VdW12
SciTegic.value.DoubleValue
9.005

@<SCITEGIC>MOL_PROPERTY
Bond
SciTegic.value.DoubleValue
0.182

@<SCITEGIC>MOL_PROPERTY
Angle
SciTegic.value.DoubleValue
2.988

@<SCITEGIC>MOL_PROPERTY
Pdih
SciTegic.value.DoubleValue
6.930

@<SCITEGIC>MOL_PROPERTY
Idih
SciTegic.value.DoubleValue
0.001

@<SCITEGIC>MOL_PROPERTY
Tether
SciTegic.value.DoubleValue
0.000

@<TRIPOS>MOLECULE
guest-s21_confgen4.mol2 : confsearch ligand conformer 653
          22          21           1
SMALL
USER_CHARGES
 
@<TRIPOS>ATOM
       1    C1      17.156531   19.414386   24.232745 C.2        1 MOL1         0.6145
       2    O1      16.197410   19.583736   23.506125 O.co2      1 MOL1        -0.6735
       3    O2      17.107403   19.505079   25.443507 O.co2      1 MOL1        -0.6735
       4    C2      18.500457   19.092921   23.588910 C.3        1 MOL1        -0.1985
       5    H1      18.303203   18.497614   22.690338 H          1 MOL1         0.0740
       6    H2      19.069930   18.464466   24.283910 H          1 MOL1         0.0740
       7    C3      19.311358   20.362629   23.226387 C.3        1 MOL1        -0.1882
       8    H3      18.761237   20.938723   22.469593 H          1 MOL1         0.0742
       9    H4      19.374977   21.005298   24.115404 H          1 MOL1         0.0742
      10    C4      20.748405   20.080081   22.720686 C.3        1 MOL1        -0.1880
      11    H5      21.336775   19.591323   23.509286 H          1 MOL1         0.0742
      12    H6      21.233429   21.049981   22.544640 H          1 MOL1         0.0742
      13    C5      20.821396   19.259000   21.408356 C.3        1 MOL1        -0.1880
      14    H7      19.916930   19.426298   20.807594 H          1 MOL1         0.0742
      15    H8      21.660733   19.636156   20.808140 H          1 MOL1         0.0742
      16    C6      21.040284   17.746447   21.642937 C.3        1 MOL1        -0.1856
      17    H9      20.238226   17.331861   22.265180 H          1 MOL1         0.0742
      18    H10     21.977759   17.592137   22.194776 H          1 MOL1         0.0742
      19    C7      21.100281   16.970835   20.311713 C.3        1 MOL1        -0.2871
      20    H11     20.162396   17.080165   19.751555 H          1 MOL1         0.0754
      21    H12     21.263073   15.900728   20.494481 H          1 MOL1         0.0754
      22    H13     21.921278   17.335711   19.680712 H          1 MOL1         0.0754
@<TRIPOS>BOND
    1     1     2    1
    2     1     3    2
    3     1     4    1
    4     4     5    1
    5     4     6    1
    6     4     7    1
    7     7     8    1
    8     7     9    1
    9     7    10    1
   10    10    11    1
   11    10    12    1
   12    10    13    1
   13    13    14    1
   14    13    15    1
   15    13    16    1
   16    16    17    1
   17    16    18    1
   18    16    19    1
   19    19    20    1
   20    19    21    1
   21    19    22    1
@<TRIPOS>SUBSTRUCTURE
       1 MOL1            1 RESIDUE      1      MOL     
@<SCITEGIC>MOL_PROPERTY
VConf Rank
SciTegic.value.IntegerValue
653

@<SCITEGIC>MOL_PROPERTY
Conf_Id
SciTegic.value.IntegerValue
6

@<SCITEGIC>MOL_PROPERTY
Delta U+W
SciTegic.value.DoubleValue
2.118

@<SCITEGIC>MOL_PROPERTY
U+W
SciTegic.value.DoubleValue
-51.042

@<SCITEGIC>MOL_PROPERTY
Grad RMS
SciTegic.value.DoubleValue
0.000000

@<SCITEGIC>MOL_PROPERTY
U
SciTegic.value.DoubleValue
10.045

@<SCITEGIC>MOL_PROPERTY
W
SciTegic.value.DoubleValue
-61.086

@<SCITEGIC>MOL_PROPERTY
W(PB)
SciTegic.value.DoubleValue
-63.356

@<SCITEGIC>MOL_PROPERTY
W(SA)
SciTegic.value.DoubleValue
2.270

@<SCITEGIC>MOL_PROPERTY
Valence
SciTegic.value.DoubleValue
10.100

@<SCITEGIC>MOL_PROPERTY
Coulomb
SciTegic.value.DoubleValue
-0.883

@<SCITEGIC>MOL_PROPERTY
VdW
SciTegic.value.DoubleValue
0.828

@<SCITEGIC>MOL_PROPERTY
VdW6
SciTegic.value.DoubleValue
-8.177

@<SCITEGIC>MOL_PROPERTY
VdW12
SciTegic.value.DoubleValue
9.004

@<SCITEGIC>MOL_PROPERTY
Bond
SciTegic.value.DoubleValue
0.182

@<SCITEGIC>MOL_PROPERTY
Angle
SciTegic.value.DoubleValue
2.988

@<SCITEGIC>MOL_PROPERTY
Pdih
SciTegic.value.DoubleValue
6.930

@<SCITEGIC>MOL_PROPERTY
Idih
SciTegic.value.DoubleValue
0.001

@<SCITEGIC>MOL_PROPERTY
Tether
SciTegic.value.DoubleValue
0.000

@<TRIPOS>MOLECULE
guest-s21_confgen4.mol2 : confsearch ligand conformer 654
          22          21           1
SMALL
USER_CHARGES
 
@<TRIPOS>ATOM
       1    C1      17.817222   20.901330   22.062879 C.2        1 MOL1         0.6145
       2    O1      18.442398   21.880248   21.704593 O.co2      1 MOL1        -0.6735
       3    O2      17.229777   20.832898   23.124614 O.co2      1 MOL1        -0.6735
       4    C2      17.703587   19.721006   21.099875 C.3        1 MOL1        -0.1985
       5    H1      17.167312   20.092612   20.219051 H          1 MOL1         0.0740
       6    H2      17.067231   18.951141   21.552867 H          1 MOL1         0.0740
       7    C3      19.055641   19.102839   20.645011 C.3        1 MOL1        -0.1882
       8    H3      18.877765   18.545759   19.715257 H          1 MOL1         0.0742
       9    H4      19.764992   19.901614   20.387423 H          1 MOL1         0.0742
      10    C4      19.699400   18.128553   21.662486 C.3        1 MOL1        -0.1880
      11    H5      20.555026   17.641499   21.174985 H          1 MOL1         0.0742
      12    H6      18.988196   17.328401   21.909013 H          1 MOL1         0.0742
      13    C5      20.188853   18.807026   22.961953 C.3        1 MOL1        -0.1880
      14    H7      20.818926   19.671689   22.712129 H          1 MOL1         0.0742
      15    H8      19.330777   19.188009   23.529950 H          1 MOL1         0.0742
      16    C6      20.983364   17.828192   23.852225 C.3        1 MOL1        -0.1856
      17    H9      21.851950   17.444642   23.299231 H          1 MOL1         0.0742
      18    H10     20.355017   16.961900   24.101490 H          1 MOL1         0.0742
      19    C7      21.462805   18.504556   25.152258 C.3        1 MOL1        -0.2871
      20    H11     22.119223   19.356677   24.932314 H          1 MOL1         0.0754
      21    H12     22.024548   17.794969   25.773510 H          1 MOL1         0.0754
      22    H13     20.611475   18.870972   25.740884 H          1 MOL1         0.0754
@<TRIPOS>BOND
    1     1     2    1
    2     1     3    2
    3     1     4    1
    4     4     5    1
    5     4     6    1
    6     4     7    1
    7     7     8    1
    8     7     9    1
    9     7    10    1
   10    10    11    1
   11    10    12    1
   12    10    13    1
   13    13    14    1
   14    13    15    1
   15    13    16    1
   16    16    17    1
   17    16    18    1
   18    16    19    1
   19    19    20    1
   20    19    21    1
   21    19    22    1
@<TRIPOS>SUBSTRUCTURE
       1 MOL1            1 RESIDUE      1      MOL     
@<SCITEGIC>MOL_PROPERTY
VConf Rank
SciTegic.value.IntegerValue
654

@<SCITEGIC>MOL_PROPERTY
Conf_Id
SciTegic.value.IntegerValue
8

@<SCITEGIC>MOL_PROPERTY
Delta U+W
SciTegic.value.DoubleValue
1.886

@<SCITEGIC>MOL_PROPERTY
U+W
SciTegic.value.DoubleValue
-51.274

@<SCITEGIC>MOL_PROPERTY
Grad RMS
SciTegic.value.DoubleValue
0.000000

@<SCITEGIC>MOL_PROPERTY
U
SciTegic.value.DoubleValue
11.237

@<SCITEGIC>MOL_PROPERTY
W
SciTegic.value.DoubleValue
-62.510

@<SCITEGIC>MOL_PROPERTY
W(PB)
SciTegic.value.DoubleValue
-64.777

@<SCITEGIC>MOL_PROPERTY
W(SA)
SciTegic.value.DoubleValue
2.267

@<SCITEGIC>MOL_PROPERTY
Valence
SciTegic.value.DoubleValue
9.029

@<SCITEGIC>MOL_PROPERTY
Coulomb
SciTegic.value.DoubleValue
1.667

@<SCITEGIC>MOL_PROPERTY
VdW
SciTegic.value.DoubleValue
0.540

@<SCITEGIC>MOL_PROPERTY
VdW6
SciTegic.value.DoubleValue
-8.825

@<SCITEGIC>MOL_PROPERTY
VdW12
SciTegic.value.DoubleValue
9.365

@<SCITEGIC>MOL_PROPERTY
Bond
SciTegic.value.DoubleValue
0.186

@<SCITEGIC>MOL_PROPERTY
Angle
SciTegic.value.DoubleValue
3.195

@<SCITEGIC>MOL_PROPERTY
Pdih
SciTegic.value.DoubleValue
5.642

@<SCITEGIC>MOL_PROPERTY
Idih
SciTegic.value.DoubleValue
0.007

@<SCITEGIC>MOL_PROPERTY
Tether
SciTegic.value.DoubleValue
0.000

@<TRIPOS>MOLECULE
guest-s21_confgen4.mol2 : confsearch ligand conformer 655
          22          21           1
SMALL
USER_CHARGES
 
@<TRIPOS>ATOM
       1    C1      22.365487   17.548090   23.079336 C.2        1 MOL1         0.6145
       2    O1      22.899833   18.635910   23.168127 O.co2      1 MOL1        -0.6735
       3    O2      22.836655   16.616726   22.456545 O.co2      1 MOL1        -0.6735
       4    C2      21.045856   17.327807   23.813648 C.3        1 MOL1        -0.1985
       5    H1      20.905315   18.140305   24.535316 H          1 MOL1         0.0740
       6    H2      21.149934   16.407920   24.400758 H          1 MOL1         0.0740
       7    C3      19.811499   17.202286   22.878900 C.3        1 MOL1        -0.1882
       8    H3      19.953976   16.330613   22.225285 H          1 MOL1         0.0742
       9    H4      18.920586   16.989297   23.484902 H          1 MOL1         0.0742
      10    C4      19.541922   18.445928   21.996054 C.3        1 MOL1        -0.1880
      11    H5      18.713542   18.206045   21.317647 H          1 MOL1         0.0742
      12    H6      20.415154   18.645759   21.360084 H          1 MOL1         0.0742
      13    C5      19.191234   19.715424   22.810205 C.3        1 MOL1        -0.1880
      14    H7      18.330534   19.513682   23.462115 H          1 MOL1         0.0742
      15    H8      20.032240   19.966869   23.469308 H          1 MOL1         0.0742
      16    C6      18.893742   20.949199   21.926294 C.3        1 MOL1        -0.1856
      17    H9      19.747231   21.143786   21.262163 H          1 MOL1         0.0742
      18    H10     18.798646   21.830928   22.574897 H          1 MOL1         0.0742
      19    C7      17.603297   20.809299   21.089638 C.3        1 MOL1        -0.2871
      20    H11     17.695343   20.015143   20.338510 H          1 MOL1         0.0754
      21    H12     17.388197   21.745028   20.557623 H          1 MOL1         0.0754
      22    H13     16.742277   20.579785   21.730783 H          1 MOL1         0.0754
@<TRIPOS>BOND
    1     1     2    1
    2     1     3    2
    3     1     4    1
    4     4     5    1
    5     4     6    1
    6     4     7    1
    7     7     8    1
    8     7     9    1
    9     7    10    1
   10    10    11    1
   11    10    12    1
   12    10    13    1
   13    13    14    1
   14    13    15    1
   15    13    16    1
   16    16    17    1
   17    16    18    1
   18    16    19    1
   19    19    20    1
   20    19    21    1
   21    19    22    1
@<TRIPOS>SUBSTRUCTURE
       1 MOL1            1 RESIDUE      1      MOL     
@<SCITEGIC>MOL_PROPERTY
VConf Rank
SciTegic.value.IntegerValue
655

@<SCITEGIC>MOL_PROPERTY
Conf_Id
SciTegic.value.IntegerValue
93

@<SCITEGIC>MOL_PROPERTY
Delta U+W
SciTegic.value.DoubleValue
1.836

@<SCITEGIC>MOL_PROPERTY
U+W
SciTegic.value.DoubleValue
-51.323

@<SCITEGIC>MOL_PROPERTY
Grad RMS
SciTegic.value.DoubleValue
0.000000

@<SCITEGIC>MOL_PROPERTY
U
SciTegic.value.DoubleValue
10.427

@<SCITEGIC>MOL_PROPERTY
W
SciTegic.value.DoubleValue
-61.751

@<SCITEGIC>MOL_PROPERTY
W(PB)
SciTegic.value.DoubleValue
-63.980

@<SCITEGIC>MOL_PROPERTY
W(SA)
SciTegic.value.DoubleValue
2.230

@<SCITEGIC>MOL_PROPERTY
Valence
SciTegic.value.DoubleValue
8.446

@<SCITEGIC>MOL_PROPERTY
Coulomb
SciTegic.value.DoubleValue
1.306

@<SCITEGIC>MOL_PROPERTY
VdW
SciTegic.value.DoubleValue
0.676

@<SCITEGIC>MOL_PROPERTY
VdW6
SciTegic.value.DoubleValue
-8.928

@<SCITEGIC>MOL_PROPERTY
VdW12
SciTegic.value.DoubleValue
9.604

@<SCITEGIC>MOL_PROPERTY
Bond
SciTegic.value.DoubleValue
0.209

@<SCITEGIC>MOL_PROPERTY
Angle
SciTegic.value.DoubleValue
3.066

@<SCITEGIC>MOL_PROPERTY
Pdih
SciTegic.value.DoubleValue
5.170

@<SCITEGIC>MOL_PROPERTY
Idih
SciTegic.value.DoubleValue
0.001

@<SCITEGIC>MOL_PROPERTY
Tether
SciTegic.value.DoubleValue
0.000

@<TRIPOS>MOLECULE
guest-s21_confgen4.mol2 : confsearch ligand conformer 656
          22          21           1
SMALL
USER_CHARGES
 
@<TRIPOS>ATOM
       1    C1      19.630525   17.373890   19.898702 C.2        1 MOL1         0.6145
       2    O1      19.256559   16.218489   19.848658 O.co2      1 MOL1        -0.6735
       3    O2      20.762864   17.725754   19.632681 O.co2      1 MOL1        -0.6735
       4    C2      18.613058   18.442722   20.287959 C.3        1 MOL1        -0.1985
       5    H1      17.725344   18.289632   19.663259 H          1 MOL1         0.0740
       6    H2      19.014950   19.425621   20.017584 H          1 MOL1         0.0740
       7    C3      18.198258   18.410469   21.784638 C.3        1 MOL1        -0.1882
       8    H3      17.425991   19.171246   21.961143 H          1 MOL1         0.0742
       9    H4      17.728067   17.440393   21.997243 H          1 MOL1         0.0742
      10    C4      19.363611   18.626381   22.781667 C.3        1 MOL1        -0.1880
      11    H5      20.125177   17.848032   22.636359 H          1 MOL1         0.0742
      12    H6      18.970279   18.488667   23.796714 H          1 MOL1         0.0742
      13    C5      20.021084   20.023612   22.668017 C.3        1 MOL1        -0.1880
      14    H7      20.435637   20.147909   21.659240 H          1 MOL1         0.0742
      15    H8      19.259206   20.804886   22.793102 H          1 MOL1         0.0742
      16    C6      21.165352   20.248399   23.683947 C.3        1 MOL1        -0.1856
      17    H9      21.667894   21.195211   23.442755 H          1 MOL1         0.0742
      18    H10     21.921345   19.458985   23.571341 H          1 MOL1         0.0742
      19    C7      20.683640   20.303752   25.150132 C.3        1 MOL1        -0.2871
      20    H11     20.282290   19.336968   25.478152 H          1 MOL1         0.0754
      21    H12     19.901663   21.063465   25.278383 H          1 MOL1         0.0754
      22    H13     21.516388   20.560326   25.817665 H          1 MOL1         0.0754
@<TRIPOS>BOND
    1     1     2    1
    2     1     3    2
    3     1     4    1
    4     4     5    1
    5     4     6    1
    6     4     7    1
    7     7     8    1
    8     7     9    1
    9     7    10    1
   10    10    11    1
   11    10    12    1
   12    10    13    1
   13    13    14    1
   14    13    15    1
   15    13    16    1
   16    16    17    1
   17    16    18    1
   18    16    19    1
   19    19    20    1
   20    19    21    1
   21    19    22    1
@<TRIPOS>SUBSTRUCTURE
       1 MOL1            1 RESIDUE      1      MOL     
@<SCITEGIC>MOL_PROPERTY
VConf Rank
SciTegic.value.IntegerValue
656

@<SCITEGIC>MOL_PROPERTY
Conf_Id
SciTegic.value.IntegerValue
70

@<SCITEGIC>MOL_PROPERTY
Delta U+W
SciTegic.value.DoubleValue
1.803

@<SCITEGIC>MOL_PROPERTY
U+W
SciTegic.value.DoubleValue
-51.356

@<SCITEGIC>MOL_PROPERTY
Grad RMS
SciTegic.value.DoubleValue
0.000000

@<SCITEGIC>MOL_PROPERTY
U
SciTegic.value.DoubleValue
10.428

@<SCITEGIC>MOL_PROPERTY
W
SciTegic.value.DoubleValue
-61.784

@<SCITEGIC>MOL_PROPERTY
W(PB)
SciTegic.value.DoubleValue
-64.014

@<SCITEGIC>MOL_PROPERTY
W(SA)
SciTegic.value.DoubleValue
2.230

@<SCITEGIC>MOL_PROPERTY
Valence
SciTegic.value.DoubleValue
8.445

@<SCITEGIC>MOL_PROPERTY
Coulomb
SciTegic.value.DoubleValue
1.306

@<SCITEGIC>MOL_PROPERTY
VdW
SciTegic.value.DoubleValue
0.676

@<SCITEGIC>MOL_PROPERTY
VdW6
SciTegic.value.DoubleValue
-8.929

@<SCITEGIC>MOL_PROPERTY
VdW12
SciTegic.value.DoubleValue
9.605

@<SCITEGIC>MOL_PROPERTY
Bond
SciTegic.value.DoubleValue
0.209

@<SCITEGIC>MOL_PROPERTY
Angle
SciTegic.value.DoubleValue
3.066

@<SCITEGIC>MOL_PROPERTY
Pdih
SciTegic.value.DoubleValue
5.170

@<SCITEGIC>MOL_PROPERTY
Idih
SciTegic.value.DoubleValue
0.001

@<SCITEGIC>MOL_PROPERTY
Tether
SciTegic.value.DoubleValue
0.000

@<TRIPOS>MOLECULE
guest-s21_confgen4.mol2 : confsearch ligand conformer 657
          22          21           1
SMALL
USER_CHARGES
 
@<TRIPOS>ATOM
       1    C1      16.900333   19.667392   24.083005 C.2        1 MOL1         0.6145
       2    O1      16.360137   20.538999   23.430776 O.co2      1 MOL1        -0.6735
       3    O2      17.185986   19.786380   25.258217 O.co2      1 MOL1        -0.6735
       4    C2      17.217347   18.344177   23.391847 C.3        1 MOL1        -0.1985
       5    H1      16.333599   18.057785   22.809604 H          1 MOL1         0.0740
       6    H2      17.355468   17.572712   24.159051 H          1 MOL1         0.0740
       7    C3      18.455423   18.401549   22.459721 C.3        1 MOL1        -0.1882
       8    H3      18.531150   17.454635   21.908463 H          1 MOL1         0.0742
       9    H4      18.302295   19.192480   21.713657 H          1 MOL1         0.0742
      10    C4      19.770720   18.646654   23.237205 C.3        1 MOL1        -0.1880
      11    H5      19.859191   17.895995   24.034403 H          1 MOL1         0.0742
      12    H6      19.732427   19.624680   23.736507 H          1 MOL1         0.0742
      13    C5      21.034899   18.570921   22.348585 C.3        1 MOL1        -0.1880
      14    H7      21.919836   18.632468   22.996650 H          1 MOL1         0.0742
      15    H8      21.079593   17.590869   21.854250 H          1 MOL1         0.0742
      16    C6      21.110452   19.693155   21.288844 C.3        1 MOL1        -0.1856
      17    H9      21.012515   20.672010   21.778252 H          1 MOL1         0.0742
      18    H10     20.275015   19.603167   20.582228 H          1 MOL1         0.0742
      19    C7      22.437591   19.642622   20.505338 C.3        1 MOL1        -0.2871
      20    H11     23.296309   19.768612   21.177708 H          1 MOL1         0.0754
      21    H12     22.474527   20.443238   19.755199 H          1 MOL1         0.0754
      22    H13     22.548636   18.683296   19.983096 H          1 MOL1         0.0754
@<TRIPOS>BOND
    1     1     2    1
    2     1     3    2
    3     1     4    1
    4     4     5    1
    5     4     6    1
    6     4     7    1
    7     7     8    1
    8     7     9    1
    9     7    10    1
   10    10    11    1
   11    10    12    1
   12    10    13    1
   13    13    14    1
   14    13    15    1
   15    13    16    1
   16    16    17    1
   17    16    18    1
   18    16    19    1
   19    19    20    1
   20    19    21    1
   21    19    22    1
@<TRIPOS>SUBSTRUCTURE
       1 MOL1            1 RESIDUE      1      MOL     
@<SCITEGIC>MOL_PROPERTY
VConf Rank
SciTegic.value.IntegerValue
657

@<SCITEGIC>MOL_PROPERTY
Conf_Id
SciTegic.value.IntegerValue
85

@<SCITEGIC>MOL_PROPERTY
Delta U+W
SciTegic.value.DoubleValue
0.707

@<SCITEGIC>MOL_PROPERTY
U+W
SciTegic.value.DoubleValue
-52.452

@<SCITEGIC>MOL_PROPERTY
Grad RMS
SciTegic.value.DoubleValue
0.000000

@<SCITEGIC>MOL_PROPERTY
U
SciTegic.value.DoubleValue
8.925

@<SCITEGIC>MOL_PROPERTY
W
SciTegic.value.DoubleValue
-61.378

@<SCITEGIC>MOL_PROPERTY
W(PB)
SciTegic.value.DoubleValue
-63.661

@<SCITEGIC>MOL_PROPERTY
W(SA)
SciTegic.value.DoubleValue
2.283

@<SCITEGIC>MOL_PROPERTY
Valence
SciTegic.value.DoubleValue
7.881

@<SCITEGIC>MOL_PROPERTY
Coulomb
SciTegic.value.DoubleValue
0.349

@<SCITEGIC>MOL_PROPERTY
VdW
SciTegic.value.DoubleValue
0.695

@<SCITEGIC>MOL_PROPERTY
VdW6
SciTegic.value.DoubleValue
-8.049

@<SCITEGIC>MOL_PROPERTY
VdW12
SciTegic.value.DoubleValue
8.743

@<SCITEGIC>MOL_PROPERTY
Bond
SciTegic.value.DoubleValue
0.156

@<SCITEGIC>MOL_PROPERTY
Angle
SciTegic.value.DoubleValue
2.660

@<SCITEGIC>MOL_PROPERTY
Pdih
SciTegic.value.DoubleValue
5.064

@<SCITEGIC>MOL_PROPERTY
Idih
SciTegic.value.DoubleValue
0.001

@<SCITEGIC>MOL_PROPERTY
Tether
SciTegic.value.DoubleValue
0.000

@<TRIPOS>MOLECULE
guest-s21_confgen4.mol2 : confsearch ligand conformer 658
          22          21           1
SMALL
USER_CHARGES
 
@<TRIPOS>ATOM
       1    C1      21.188597   18.388321   25.404016 C.2        1 MOL1         0.6145
       2    O1      20.766566   17.381965   25.938879 O.co2      1 MOL1        -0.6735
       3    O2      22.367532   18.679269   25.354684 O.co2      1 MOL1        -0.6735
       4    C2      20.183078   19.352122   24.779985 C.3        1 MOL1        -0.1985
       5    H1      20.454161   20.363189   25.105940 H          1 MOL1         0.0740
       6    H2      19.190072   19.140459   25.194706 H          1 MOL1         0.0740
       7    C3      20.137568   19.303617   23.230384 C.3        1 MOL1        -0.1882
       8    H3      19.510070   20.131505   22.877181 H          1 MOL1         0.0742
       9    H4      21.147110   19.470442   22.830045 H          1 MOL1         0.0742
      10    C4      19.572200   17.968412   22.693104 C.3        1 MOL1        -0.1880
      11    H5      18.532687   17.851203   23.028328 H          1 MOL1         0.0742
      12    H6      20.133084   17.134534   23.136836 H          1 MOL1         0.0742
      13    C5      19.635867   17.824866   21.151720 C.3        1 MOL1        -0.1880
      14    H7      20.681160   17.847542   20.814414 H          1 MOL1         0.0742
      15    H8      19.262713   16.823178   20.898255 H          1 MOL1         0.0742
      16    C6      18.796120   18.864084   20.367659 C.3        1 MOL1        -0.1856
      17    H9      17.946328   19.204303   20.975373 H          1 MOL1         0.0742
      18    H10     18.362997   18.372087   19.485819 H          1 MOL1         0.0742
      19    C7      19.624751   20.073453   19.879983 C.3        1 MOL1        -0.2871
      20    H11     20.076169   20.622433   20.714097 H          1 MOL1         0.0754
      21    H12     18.989860   20.773892   19.322204 H          1 MOL1         0.0754
      22    H13     20.433031   19.748470   19.212034 H          1 MOL1         0.0754
@<TRIPOS>BOND
    1     1     2    1
    2     1     3    2
    3     1     4    1
    4     4     5    1
    5     4     6    1
    6     4     7    1
    7     7     8    1
    8     7     9    1
    9     7    10    1
   10    10    11    1
   11    10    12    1
   12    10    13    1
   13    13    14    1
   14    13    15    1
   15    13    16    1
   16    16    17    1
   17    16    18    1
   18    16    19    1
   19    19    20    1
   20    19    21    1
   21    19    22    1
@<TRIPOS>SUBSTRUCTURE
       1 MOL1            1 RESIDUE      1      MOL     
@<SCITEGIC>MOL_PROPERTY
VConf Rank
SciTegic.value.IntegerValue
658

@<SCITEGIC>MOL_PROPERTY
Conf_Id
SciTegic.value.IntegerValue
82

@<SCITEGIC>MOL_PROPERTY
Delta U+W
SciTegic.value.DoubleValue
3.438

@<SCITEGIC>MOL_PROPERTY
U+W
SciTegic.value.DoubleValue
-49.721

@<SCITEGIC>MOL_PROPERTY
Grad RMS
SciTegic.value.DoubleValue
0.000000

@<SCITEGIC>MOL_PROPERTY
U
SciTegic.value.DoubleValue
11.773

@<SCITEGIC>MOL_PROPERTY
W
SciTegic.value.DoubleValue
-61.495

@<SCITEGIC>MOL_PROPERTY
W(PB)
SciTegic.value.DoubleValue
-63.749

@<SCITEGIC>MOL_PROPERTY
W(SA)
SciTegic.value.DoubleValue
2.254

@<SCITEGIC>MOL_PROPERTY
Valence
SciTegic.value.DoubleValue
10.419

@<SCITEGIC>MOL_PROPERTY
Coulomb
SciTegic.value.DoubleValue
0.565

@<SCITEGIC>MOL_PROPERTY
VdW
SciTegic.value.DoubleValue
0.789

@<SCITEGIC>MOL_PROPERTY
VdW6
SciTegic.value.DoubleValue
-8.847

@<SCITEGIC>MOL_PROPERTY
VdW12
SciTegic.value.DoubleValue
9.636

@<SCITEGIC>MOL_PROPERTY
Bond
SciTegic.value.DoubleValue
0.200

@<SCITEGIC>MOL_PROPERTY
Angle
SciTegic.value.DoubleValue
3.187

@<SCITEGIC>MOL_PROPERTY
Pdih
SciTegic.value.DoubleValue
7.032

@<SCITEGIC>MOL_PROPERTY
Idih
SciTegic.value.DoubleValue
0.001

@<SCITEGIC>MOL_PROPERTY
Tether
SciTegic.value.DoubleValue
0.000

@<TRIPOS>MOLECULE
guest-s21_confgen4.mol2 : confsearch ligand conformer 659
          22          21           1
SMALL
USER_CHARGES
 
@<TRIPOS>ATOM
       1    C1      19.781254   21.600215   20.423021 C.2        1 MOL1         0.6145
       2    O1      19.930395   22.584967   21.119436 O.co2      1 MOL1        -0.6735
       3    O2      20.350208   21.435086   19.361907 O.co2      1 MOL1        -0.6735
       4    C2      18.808415   20.524200   20.897546 C.3        1 MOL1        -0.1985
       5    H1      18.528081   19.901380   20.039428 H          1 MOL1         0.0740
       6    H2      17.896523   21.032811   21.231851 H          1 MOL1         0.0740
       7    C3      19.356305   19.637676   22.046277 C.3        1 MOL1        -0.1882
       8    H3      19.676815   20.277407   22.880121 H          1 MOL1         0.0742
       9    H4      18.537295   19.009524   22.418503 H          1 MOL1         0.0742
      10    C4      20.527941   18.735276   21.594585 C.3        1 MOL1        -0.1880
      11    H5      21.299854   19.356647   21.120361 H          1 MOL1         0.0742
      12    H6      20.175620   18.040335   20.820229 H          1 MOL1         0.0742
      13    C5      21.192979   17.934168   22.741963 C.3        1 MOL1        -0.1880
      14    H7      22.038558   17.381050   22.310776 H          1 MOL1         0.0742
      15    H8      21.631326   18.622916   23.477085 H          1 MOL1         0.0742
      16    C6      20.262072   16.916865   23.447942 C.3        1 MOL1        -0.1856
      17    H9      20.849124   16.024966   23.707139 H          1 MOL1         0.0742
      18    H10     19.477368   16.575903   22.758598 H          1 MOL1         0.0742
      19    C7      19.632414   17.467290   24.747015 C.3        1 MOL1        -0.2871
      20    H11     20.410193   17.742473   25.471183 H          1 MOL1         0.0754
      21    H12     18.992053   16.708324   25.214697 H          1 MOL1         0.0754
      22    H13     19.017176   18.354404   24.558824 H          1 MOL1         0.0754
@<TRIPOS>BOND
    1     1     2    1
    2     1     3    2
    3     1     4    1
    4     4     5    1
    5     4     6    1
    6     4     7    1
    7     7     8    1
    8     7     9    1
    9     7    10    1
   10    10    11    1
   11    10    12    1
   12    10    13    1
   13    13    14    1
   14    13    15    1
   15    13    16    1
   16    16    17    1
   17    16    18    1
   18    16    19    1
   19    19    20    1
   20    19    21    1
   21    19    22    1
@<TRIPOS>SUBSTRUCTURE
       1 MOL1            1 RESIDUE      1      MOL     
@<SCITEGIC>MOL_PROPERTY
VConf Rank
SciTegic.value.IntegerValue
659

@<SCITEGIC>MOL_PROPERTY
Conf_Id
SciTegic.value.IntegerValue
94

@<SCITEGIC>MOL_PROPERTY
Delta U+W
SciTegic.value.DoubleValue
3.471

@<SCITEGIC>MOL_PROPERTY
U+W
SciTegic.value.DoubleValue
-49.688

@<SCITEGIC>MOL_PROPERTY
Grad RMS
SciTegic.value.DoubleValue
0.000000

@<SCITEGIC>MOL_PROPERTY
U
SciTegic.value.DoubleValue
11.773

@<SCITEGIC>MOL_PROPERTY
W
SciTegic.value.DoubleValue
-61.461

@<SCITEGIC>MOL_PROPERTY
W(PB)
SciTegic.value.DoubleValue
-63.710

@<SCITEGIC>MOL_PROPERTY
W(SA)
SciTegic.value.DoubleValue
2.248

@<SCITEGIC>MOL_PROPERTY
Valence
SciTegic.value.DoubleValue
10.419

@<SCITEGIC>MOL_PROPERTY
Coulomb
SciTegic.value.DoubleValue
0.566

@<SCITEGIC>MOL_PROPERTY
VdW
SciTegic.value.DoubleValue
0.789

@<SCITEGIC>MOL_PROPERTY
VdW6
SciTegic.value.DoubleValue
-8.847

@<SCITEGIC>MOL_PROPERTY
VdW12
SciTegic.value.DoubleValue
9.636

@<SCITEGIC>MOL_PROPERTY
Bond
SciTegic.value.DoubleValue
0.200

@<SCITEGIC>MOL_PROPERTY
Angle
SciTegic.value.DoubleValue
3.187

@<SCITEGIC>MOL_PROPERTY
Pdih
SciTegic.value.DoubleValue
7.032

@<SCITEGIC>MOL_PROPERTY
Idih
SciTegic.value.DoubleValue
0.001

@<SCITEGIC>MOL_PROPERTY
Tether
SciTegic.value.DoubleValue
0.000

@<TRIPOS>MOLECULE
guest-s21_confgen4.mol2 : confsearch ligand conformer 660
          22          21           1
SMALL
USER_CHARGES
 
@<TRIPOS>ATOM
       1    C1      19.499656   21.695193   20.338029 C.2        1 MOL1         0.6145
       2    O1      19.824516   22.860542   20.452600 O.co2      1 MOL1        -0.6735
       3    O2      18.556127   21.322657   19.669041 O.co2      1 MOL1        -0.6735
       4    C2      20.308918   20.645094   21.090571 C.3        1 MOL1        -0.1985
       5    H1      21.348685   20.989073   21.143431 H          1 MOL1         0.0740
       6    H2      20.299648   19.725887   20.493908 H          1 MOL1         0.0740
       7    C3      19.762062   20.373920   22.516007 C.3        1 MOL1        -0.1882
       8    H3      19.706790   21.326828   23.060074 H          1 MOL1         0.0742
       9    H4      18.730992   20.002026   22.449549 H          1 MOL1         0.0742
      10    C4      20.632266   19.387528   23.334659 C.3        1 MOL1        -0.1880
      11    H5      20.207840   19.292030   24.342734 H          1 MOL1         0.0742
      12    H6      21.629950   19.825806   23.472807 H          1 MOL1         0.0742
      13    C5      20.794058   17.975865   22.711602 C.3        1 MOL1        -0.1880
      14    H7      21.365299   18.054087   21.777355 H          1 MOL1         0.0742
      15    H8      21.410040   17.364759   23.385144 H          1 MOL1         0.0742
      16    C6      19.469814   17.224735   22.428564 C.3        1 MOL1        -0.1856
      17    H9      19.707999   16.256474   21.967426 H          1 MOL1         0.0742
      18    H10     18.873527   17.775113   21.688613 H          1 MOL1         0.0742
      19    C7      18.626195   16.976570   23.697628 C.3        1 MOL1        -0.2871
      20    H11     19.209094   16.441116   24.458201 H          1 MOL1         0.0754
      21    H12     17.742518   16.370723   23.459280 H          1 MOL1         0.0754
      22    H13     18.275169   17.920341   24.133557 H          1 MOL1         0.0754
@<TRIPOS>BOND
    1     1     2    1
    2     1     3    2
    3     1     4    1
    4     4     5    1
    5     4     6    1
    6     4     7    1
    7     7     8    1
    8     7     9    1
    9     7    10    1
   10    10    11    1
   11    10    12    1
   12    10    13    1
   13    13    14    1
   14    13    15    1
   15    13    16    1
   16    16    17    1
   17    16    18    1
   18    16    19    1
   19    19    20    1
   20    19    21    1
   21    19    22    1
@<TRIPOS>SUBSTRUCTURE
       1 MOL1            1 RESIDUE      1      MOL     
@<SCITEGIC>MOL_PROPERTY
VConf Rank
SciTegic.value.IntegerValue
660

@<SCITEGIC>MOL_PROPERTY
Conf_Id
SciTegic.value.IntegerValue
56

@<SCITEGIC>MOL_PROPERTY
Delta U+W
SciTegic.value.DoubleValue
0.853

@<SCITEGIC>MOL_PROPERTY
U+W
SciTegic.value.DoubleValue
-52.307

@<SCITEGIC>MOL_PROPERTY
Grad RMS
SciTegic.value.DoubleValue
0.000000

@<SCITEGIC>MOL_PROPERTY
U
SciTegic.value.DoubleValue
8.874

@<SCITEGIC>MOL_PROPERTY
W
SciTegic.value.DoubleValue
-61.181

@<SCITEGIC>MOL_PROPERTY
W(PB)
SciTegic.value.DoubleValue
-63.413

@<SCITEGIC>MOL_PROPERTY
W(SA)
SciTegic.value.DoubleValue
2.232

@<SCITEGIC>MOL_PROPERTY
Valence
SciTegic.value.DoubleValue
8.479

@<SCITEGIC>MOL_PROPERTY
Coulomb
SciTegic.value.DoubleValue
-0.357

@<SCITEGIC>MOL_PROPERTY
VdW
SciTegic.value.DoubleValue
0.753

@<SCITEGIC>MOL_PROPERTY
VdW6
SciTegic.value.DoubleValue
-9.081

@<SCITEGIC>MOL_PROPERTY
VdW12
SciTegic.value.DoubleValue
9.833

@<SCITEGIC>MOL_PROPERTY
Bond
SciTegic.value.DoubleValue
0.221

@<SCITEGIC>MOL_PROPERTY
Angle
SciTegic.value.DoubleValue
3.208

@<SCITEGIC>MOL_PROPERTY
Pdih
SciTegic.value.DoubleValue
5.050

@<SCITEGIC>MOL_PROPERTY
Idih
SciTegic.value.DoubleValue
0.000

@<SCITEGIC>MOL_PROPERTY
Tether
SciTegic.value.DoubleValue
0.000

@<TRIPOS>MOLECULE
guest-s21_confgen4.mol2 : confsearch ligand conformer 661
          22          21           1
SMALL
USER_CHARGES
 
@<TRIPOS>ATOM
       1    C1      17.241424   18.866137   25.279071 C.2        1 MOL1         0.6145
       2    O1      16.354701   18.363951   24.615798 O.co2      1 MOL1        -0.6735
       3    O2      17.115048   19.141679   26.455518 O.co2      1 MOL1        -0.6735
       4    C2      18.590983   19.177872   24.630196 C.3        1 MOL1        -0.1985
       5    H1      19.359656   18.644954   25.202129 H          1 MOL1         0.0740
       6    H2      18.777756   20.250000   24.762959 H          1 MOL1         0.0740
       7    C3      18.704787   18.807908   23.127337 C.3        1 MOL1        -0.1882
       8    H3      18.510431   17.733821   23.000645 H          1 MOL1         0.0742
       9    H4      17.928132   19.340456   22.561042 H          1 MOL1         0.0742
      10    C4      20.095943   19.155281   22.554163 C.3        1 MOL1        -0.1880
      11    H5      20.870671   18.621761   23.121862 H          1 MOL1         0.0742
      12    H6      20.288036   20.229463   22.682081 H          1 MOL1         0.0742
      13    C5      20.206957   18.786564   21.059160 C.3        1 MOL1        -0.1880
      14    H7      20.014879   17.712443   20.930726 H          1 MOL1         0.0742
      15    H8      19.432415   19.319894   20.491030 H          1 MOL1         0.0742
      16    C6      21.596928   19.133369   20.485741 C.3        1 MOL1        -0.1856
      17    H9      22.374271   18.600014   21.050317 H          1 MOL1         0.0742
      18    H10     21.791813   20.207561   20.610673 H          1 MOL1         0.0742
      19    C7      21.703673   18.763710   18.992659 C.3        1 MOL1        -0.2871
      20    H11     21.544001   17.687976   18.841961 H          1 MOL1         0.0754
      21    H12     22.697670   19.016852   18.601530 H          1 MOL1         0.0754
      22    H13     20.957234   19.307613   18.399021 H          1 MOL1         0.0754
@<TRIPOS>BOND
    1     1     2    1
    2     1     3    2
    3     1     4    1
    4     4     5    1
    5     4     6    1
    6     4     7    1
    7     7     8    1
    8     7     9    1
    9     7    10    1
   10    10    11    1
   11    10    12    1
   12    10    13    1
   13    13    14    1
   14    13    15    1
   15    13    16    1
   16    16    17    1
   17    16    18    1
   18    16    19    1
   19    19    20    1
   20    19    21    1
   21    19    22    1
@<TRIPOS>SUBSTRUCTURE
       1 MOL1            1 RESIDUE      1      MOL     
@<SCITEGIC>MOL_PROPERTY
VConf Rank
SciTegic.value.IntegerValue
661

@<SCITEGIC>MOL_PROPERTY
Conf_Id
SciTegic.value.IntegerValue
0

@<SCITEGIC>MOL_PROPERTY
Delta U+W
SciTegic.value.DoubleValue
0.000

@<SCITEGIC>MOL_PROPERTY
U+W
SciTegic.value.DoubleValue
-53.159

@<SCITEGIC>MOL_PROPERTY
Grad RMS
SciTegic.value.DoubleValue
0.000000

@<SCITEGIC>MOL_PROPERTY
U
SciTegic.value.DoubleValue
6.763

@<SCITEGIC>MOL_PROPERTY
W
SciTegic.value.DoubleValue
-59.922

@<SCITEGIC>MOL_PROPERTY
W(PB)
SciTegic.value.DoubleValue
-62.256

@<SCITEGIC>MOL_PROPERTY
W(SA)
SciTegic.value.DoubleValue
2.334

@<SCITEGIC>MOL_PROPERTY
Valence
SciTegic.value.DoubleValue
7.600

@<SCITEGIC>MOL_PROPERTY
Coulomb
SciTegic.value.DoubleValue
-2.139

@<SCITEGIC>MOL_PROPERTY
VdW
SciTegic.value.DoubleValue
1.302

@<SCITEGIC>MOL_PROPERTY
VdW6
SciTegic.value.DoubleValue
-6.786

@<SCITEGIC>MOL_PROPERTY
VdW12
SciTegic.value.DoubleValue
8.088

@<SCITEGIC>MOL_PROPERTY
Bond
SciTegic.value.DoubleValue
0.134

@<SCITEGIC>MOL_PROPERTY
Angle
SciTegic.value.DoubleValue
2.720

@<SCITEGIC>MOL_PROPERTY
Pdih
SciTegic.value.DoubleValue
4.746

@<SCITEGIC>MOL_PROPERTY
Idih
SciTegic.value.DoubleValue
0.000

@<SCITEGIC>MOL_PROPERTY
Tether
SciTegic.value.DoubleValue
0.000

@<TRIPOS>MOLECULE
guest-s21_confgen4.mol2 : confsearch ligand conformer 662
          22          21           1
SMALL
USER_CHARGES
 
@<TRIPOS>ATOM
       1    C1      21.907510   15.916309   23.701971 C.2        1 MOL1         0.6145
       2    O1      23.046705   16.200567   24.014802 O.co2      1 MOL1        -0.6735
       3    O2      21.576385   14.823563   23.286407 O.co2      1 MOL1        -0.6735
       4    C2      20.838596   16.997342   23.816004 C.3        1 MOL1        -0.1985
       5    H1      21.098624   17.645811   24.661306 H          1 MOL1         0.0740
       6    H2      19.886843   16.510886   24.061337 H          1 MOL1         0.0740
       7    C3      20.691974   17.837270   22.523304 C.3        1 MOL1        -0.1882
       8    H3      21.656309   18.306878   22.284349 H          1 MOL1         0.0742
       9    H4      20.444564   17.171989   21.684398 H          1 MOL1         0.0742
      10    C4      19.604360   18.924066   22.664190 C.3        1 MOL1        -0.1880
      11    H5      19.854066   19.586593   23.504355 H          1 MOL1         0.0742
      12    H6      18.642008   18.451412   22.904294 H          1 MOL1         0.0742
      13    C5      19.460440   19.759677   21.374100 C.3        1 MOL1        -0.1880
      14    H7      20.422600   20.232493   21.133646 H          1 MOL1         0.0742
      15    H8      19.210743   19.097504   20.533680 H          1 MOL1         0.0742
      16    C6      18.373622   20.846089   21.514121 C.3        1 MOL1        -0.1856
      17    H9      18.620977   21.511751   22.352683 H          1 MOL1         0.0742
      18    H10     17.409114   20.376765   21.752734 H          1 MOL1         0.0742
      19    C7      18.232985   21.678321   20.223791 C.3        1 MOL1        -0.2871
      20    H11     17.954589   21.041379   19.373963 H          1 MOL1         0.0754
      21    H12     19.175668   22.184796   19.978354 H          1 MOL1         0.0754
      22    H13     17.456598   22.445518   20.340943 H          1 MOL1         0.0754
@<TRIPOS>BOND
    1     1     2    1
    2     1     3    2
    3     1     4    1
    4     4     5    1
    5     4     6    1
    6     4     7    1
    7     7     8    1
    8     7     9    1
    9     7    10    1
   10    10    11    1
   11    10    12    1
   12    10    13    1
   13    13    14    1
   14    13    15    1
   15    13    16    1
   16    16    17    1
   17    16    18    1
   18    16    19    1
   19    19    20    1
   20    19    21    1
   21    19    22    1
@<TRIPOS>SUBSTRUCTURE
       1 MOL1            1 RESIDUE      1      MOL     
@<SCITEGIC>MOL_PROPERTY
VConf Rank
SciTegic.value.IntegerValue
662

@<SCITEGIC>MOL_PROPERTY
Conf_Id
SciTegic.value.IntegerValue
10

@<SCITEGIC>MOL_PROPERTY
Delta U+W
SciTegic.value.DoubleValue
-1.291

@<SCITEGIC>MOL_PROPERTY
U+W
SciTegic.value.DoubleValue
-54.451

@<SCITEGIC>MOL_PROPERTY
Grad RMS
SciTegic.value.DoubleValue
0.000000

@<SCITEGIC>MOL_PROPERTY
U
SciTegic.value.DoubleValue
5.779

@<SCITEGIC>MOL_PROPERTY
W
SciTegic.value.DoubleValue
-60.230

@<SCITEGIC>MOL_PROPERTY
W(PB)
SciTegic.value.DoubleValue
-62.557

@<SCITEGIC>MOL_PROPERTY
W(SA)
SciTegic.value.DoubleValue
2.328

@<SCITEGIC>MOL_PROPERTY
Valence
SciTegic.value.DoubleValue
7.101

@<SCITEGIC>MOL_PROPERTY
Coulomb
SciTegic.value.DoubleValue
-2.079

@<SCITEGIC>MOL_PROPERTY
VdW
SciTegic.value.DoubleValue
0.757

@<SCITEGIC>MOL_PROPERTY
VdW6
SciTegic.value.DoubleValue
-6.496

@<SCITEGIC>MOL_PROPERTY
VdW12
SciTegic.value.DoubleValue
7.253

@<SCITEGIC>MOL_PROPERTY
Bond
SciTegic.value.DoubleValue
0.100

@<SCITEGIC>MOL_PROPERTY
Angle
SciTegic.value.DoubleValue
2.262

@<SCITEGIC>MOL_PROPERTY
Pdih
SciTegic.value.DoubleValue
4.738

@<SCITEGIC>MOL_PROPERTY
Idih
SciTegic.value.DoubleValue
0.001

@<SCITEGIC>MOL_PROPERTY
Tether
SciTegic.value.DoubleValue
0.000

@<TRIPOS>MOLECULE
guest-s21_confgen4.mol2 : confsearch ligand conformer 663
          22          21           1
SMALL
USER_CHARGES
 
@<TRIPOS>ATOM
       1    C1      16.640435   21.073330   22.482828 C.2        1 MOL1         0.6145
       2    O1      15.761260   20.687124   21.738283 O.co2      1 MOL1        -0.6735
       3    O2      16.429852   21.667040   23.521876 O.co2      1 MOL1        -0.6735
       4    C2      18.087025   20.778163   22.102745 C.3        1 MOL1        -0.1985
       5    H1      18.711937   21.597563   22.477865 H          1 MOL1         0.0740
       6    H2      18.160829   20.788862   21.008627 H          1 MOL1         0.0740
       7    C3      18.591138   19.423773   22.659207 C.3        1 MOL1        -0.1882
       8    H3      18.498027   19.424463   23.754123 H          1 MOL1         0.0742
       9    H4      17.947839   18.615410   22.284684 H          1 MOL1         0.0742
      10    C4      20.057354   19.148480   22.260751 C.3        1 MOL1        -0.1880
      11    H5      20.698271   19.956941   22.638204 H          1 MOL1         0.0742
      12    H6      20.140347   19.157084   21.166125 H          1 MOL1         0.0742
      13    C5      20.554604   17.793758   22.815487 C.3        1 MOL1        -0.1880
      14    H7      20.399329   17.774142   23.902886 H          1 MOL1         0.0742
      15    H8      19.947368   16.978059   22.399752 H          1 MOL1         0.0742
      16    C6      22.049832   17.523347   22.528298 C.3        1 MOL1        -0.1856
      17    H9      22.349123   16.605626   23.053131 H          1 MOL1         0.0742
      18    H10     22.660976   18.334178   22.948258 H          1 MOL1         0.0742
      19    C7      22.364062   17.361059   21.025258 C.3        1 MOL1        -0.2871
      20    H11     23.416233   17.083484   20.881006 H          1 MOL1         0.0754
      21    H12     22.188934   18.294594   20.476126 H          1 MOL1         0.0754
      22    H13     21.742650   16.575165   20.576533 H          1 MOL1         0.0754
@<TRIPOS>BOND
    1     1     2    1
    2     1     3    2
    3     1     4    1
    4     4     5    1
    5     4     6    1
    6     4     7    1
    7     7     8    1
    8     7     9    1
    9     7    10    1
   10    10    11    1
   11    10    12    1
   12    10    13    1
   13    13    14    1
   14    13    15    1
   15    13    16    1
   16    16    17    1
   17    16    18    1
   18    16    19    1
   19    19    20    1
   20    19    21    1
   21    19    22    1
@<TRIPOS>SUBSTRUCTURE
       1 MOL1            1 RESIDUE      1      MOL     
@<SCITEGIC>MOL_PROPERTY
VConf Rank
SciTegic.value.IntegerValue
663

@<SCITEGIC>MOL_PROPERTY
Conf_Id
SciTegic.value.IntegerValue
37

@<SCITEGIC>MOL_PROPERTY
Delta U+W
SciTegic.value.DoubleValue
-0.345

@<SCITEGIC>MOL_PROPERTY
U+W
SciTegic.value.DoubleValue
-53.504

@<SCITEGIC>MOL_PROPERTY
Grad RMS
SciTegic.value.DoubleValue
0.000000

@<SCITEGIC>MOL_PROPERTY
U
SciTegic.value.DoubleValue
6.751

@<SCITEGIC>MOL_PROPERTY
W
SciTegic.value.DoubleValue
-60.255

@<SCITEGIC>MOL_PROPERTY
W(PB)
SciTegic.value.DoubleValue
-62.592

@<SCITEGIC>MOL_PROPERTY
W(SA)
SciTegic.value.DoubleValue
2.336

@<SCITEGIC>MOL_PROPERTY
Valence
SciTegic.value.DoubleValue
7.602

@<SCITEGIC>MOL_PROPERTY
Coulomb
SciTegic.value.DoubleValue
-1.744

@<SCITEGIC>MOL_PROPERTY
VdW
SciTegic.value.DoubleValue
0.894

@<SCITEGIC>MOL_PROPERTY
VdW6
SciTegic.value.DoubleValue
-7.110

@<SCITEGIC>MOL_PROPERTY
VdW12
SciTegic.value.DoubleValue
8.004

@<SCITEGIC>MOL_PROPERTY
Bond
SciTegic.value.DoubleValue
0.131

@<SCITEGIC>MOL_PROPERTY
Angle
SciTegic.value.DoubleValue
2.489

@<SCITEGIC>MOL_PROPERTY
Pdih
SciTegic.value.DoubleValue
4.982

@<SCITEGIC>MOL_PROPERTY
Idih
SciTegic.value.DoubleValue
0.001

@<SCITEGIC>MOL_PROPERTY
Tether
SciTegic.value.DoubleValue
0.000

@<TRIPOS>MOLECULE
guest-s21_confgen4.mol2 : confsearch ligand conformer 664
          22          21           1
SMALL
USER_CHARGES
 
@<TRIPOS>ATOM
       1    C1      18.900662   21.973124   24.556662 C.2        1 MOL1         0.6145
       2    O1      19.276162   23.043636   24.121397 O.co2      1 MOL1        -0.6735
       3    O2      18.749143   21.743600   25.740224 O.co2      1 MOL1        -0.6735
       4    C2      18.625178   20.849062   23.564290 C.3        1 MOL1        -0.1985
       5    H1      18.253187   21.298090   22.635499 H          1 MOL1         0.0740
       6    H2      17.818129   20.226886   23.969523 H          1 MOL1         0.0740
       7    C3      19.875026   19.981559   23.275369 C.3        1 MOL1        -0.1882
       8    H3      20.677608   20.620878   22.882074 H          1 MOL1         0.0742
       9    H4      20.242739   19.550591   24.216945 H          1 MOL1         0.0742
      10    C4      19.570046   18.851209   22.268568 C.3        1 MOL1        -0.1880
      11    H5      19.196869   19.292020   21.334977 H          1 MOL1         0.0742
      12    H6      18.769075   18.212542   22.665311 H          1 MOL1         0.0742
      13    C5      20.821721   17.990604   21.980590 C.3        1 MOL1        -0.1880
      14    H7      21.607400   18.616828   21.536192 H          1 MOL1         0.0742
      15    H8      21.223831   17.615140   22.931521 H          1 MOL1         0.0742
      16    C6      20.538497   16.783325   21.056701 C.3        1 MOL1        -0.1856
      17    H9      19.757489   16.151025   21.501149 H          1 MOL1         0.0742
      18    H10     21.443920   16.163534   20.999218 H          1 MOL1         0.0742
      19    C7      20.124519   17.191942   19.626364 C.3        1 MOL1        -0.2871
      20    H11     20.876974   17.849824   19.172339 H          1 MOL1         0.0754
      21    H12     19.160795   17.716273   19.622437 H          1 MOL1         0.0754
      22    H13     20.022259   16.304656   18.988252 H          1 MOL1         0.0754
@<TRIPOS>BOND
    1     1     2    1
    2     1     3    2
    3     1     4    1
    4     4     5    1
    5     4     6    1
    6     4     7    1
    7     7     8    1
    8     7     9    1
    9     7    10    1
   10    10    11    1
   11    10    12    1
   12    10    13    1
   13    13    14    1
   14    13    15    1
   15    13    16    1
   16    16    17    1
   17    16    18    1
   18    16    19    1
   19    19    20    1
   20    19    21    1
   21    19    22    1
@<TRIPOS>SUBSTRUCTURE
       1 MOL1            1 RESIDUE      1      MOL     
@<SCITEGIC>MOL_PROPERTY
VConf Rank
SciTegic.value.IntegerValue
664

@<SCITEGIC>MOL_PROPERTY
Conf_Id
SciTegic.value.IntegerValue
38

@<SCITEGIC>MOL_PROPERTY
Delta U+W
SciTegic.value.DoubleValue
-0.439

@<SCITEGIC>MOL_PROPERTY
U+W
SciTegic.value.DoubleValue
-53.598

@<SCITEGIC>MOL_PROPERTY
Grad RMS
SciTegic.value.DoubleValue
0.000000

@<SCITEGIC>MOL_PROPERTY
U
SciTegic.value.DoubleValue
6.751

@<SCITEGIC>MOL_PROPERTY
W
SciTegic.value.DoubleValue
-60.350

@<SCITEGIC>MOL_PROPERTY
W(PB)
SciTegic.value.DoubleValue
-62.659

@<SCITEGIC>MOL_PROPERTY
W(SA)
SciTegic.value.DoubleValue
2.309

@<SCITEGIC>MOL_PROPERTY
Valence
SciTegic.value.DoubleValue
7.602

@<SCITEGIC>MOL_PROPERTY
Coulomb
SciTegic.value.DoubleValue
-1.744

@<SCITEGIC>MOL_PROPERTY
VdW
SciTegic.value.DoubleValue
0.893

@<SCITEGIC>MOL_PROPERTY
VdW6
SciTegic.value.DoubleValue
-7.110

@<SCITEGIC>MOL_PROPERTY
VdW12
SciTegic.value.DoubleValue
8.004

@<SCITEGIC>MOL_PROPERTY
Bond
SciTegic.value.DoubleValue
0.131

@<SCITEGIC>MOL_PROPERTY
Angle
SciTegic.value.DoubleValue
2.489

@<SCITEGIC>MOL_PROPERTY
Pdih
SciTegic.value.DoubleValue
4.981

@<SCITEGIC>MOL_PROPERTY
Idih
SciTegic.value.DoubleValue
0.001

@<SCITEGIC>MOL_PROPERTY
Tether
SciTegic.value.DoubleValue
0.000

@<TRIPOS>MOLECULE
guest-s21_confgen4.mol2 : confsearch ligand conformer 665
          22          21           1
SMALL
USER_CHARGES
 
@<TRIPOS>ATOM
       1    C1      21.269845   21.391015   19.658166 C.2        1 MOL1         0.6145
       2    O1      20.942246   22.557969   19.571801 O.co2      1 MOL1        -0.6735
       3    O2      21.782174   20.767164   18.749947 O.co2      1 MOL1        -0.6735
       4    C2      21.002571   20.663440   20.970983 C.3        1 MOL1        -0.1985
       5    H1      21.088024   21.391376   21.786595 H          1 MOL1         0.0740
       6    H2      21.799278   19.924155   21.109463 H          1 MOL1         0.0740
       7    C3      19.609778   19.981883   21.005874 C.3        1 MOL1        -0.1882
       8    H3      18.845069   20.733888   20.766799 H          1 MOL1         0.0742
       9    H4      19.553104   19.220559   20.215642 H          1 MOL1         0.0742
      10    C4      19.264683   19.343831   22.372812 C.3        1 MOL1        -0.1880
      11    H5      18.217062   19.018590   22.340641 H          1 MOL1         0.0742
      12    H6      19.330482   20.105564   23.161546 H          1 MOL1         0.0742
      13    C5      20.166490   18.137923   22.734133 C.3        1 MOL1        -0.1880
      14    H7      20.101966   17.377057   21.944436 H          1 MOL1         0.0742
      15    H8      21.214126   18.462385   22.769646 H          1 MOL1         0.0742
      16    C6      19.818340   17.497822   24.098383 C.3        1 MOL1        -0.1856
      17    H9      19.870534   18.258477   24.889567 H          1 MOL1         0.0742
      18    H10     20.583428   16.746992   24.339506 H          1 MOL1         0.0742
      19    C7      18.432602   16.816763   24.121702 C.3        1 MOL1        -0.2871
      20    H11     17.623296   17.548326   24.006540 H          1 MOL1         0.0754
      21    H12     18.276607   16.297810   25.076308 H          1 MOL1         0.0754
      22    H13     18.345254   16.075846   23.316384 H          1 MOL1         0.0754
@<TRIPOS>BOND
    1     1     2    1
    2     1     3    2
    3     1     4    1
    4     4     5    1
    5     4     6    1
    6     4     7    1
    7     7     8    1
    8     7     9    1
    9     7    10    1
   10    10    11    1
   11    10    12    1
   12    10    13    1
   13    13    14    1
   14    13    15    1
   15    13    16    1
   16    16    17    1
   17    16    18    1
   18    16    19    1
   19    19    20    1
   20    19    21    1
   21    19    22    1
@<TRIPOS>SUBSTRUCTURE
       1 MOL1            1 RESIDUE      1      MOL     
@<SCITEGIC>MOL_PROPERTY
VConf Rank
SciTegic.value.IntegerValue
665

@<SCITEGIC>MOL_PROPERTY
Conf_Id
SciTegic.value.IntegerValue
60

@<SCITEGIC>MOL_PROPERTY
Delta U+W
SciTegic.value.DoubleValue
0.386

@<SCITEGIC>MOL_PROPERTY
U+W
SciTegic.value.DoubleValue
-52.773

@<SCITEGIC>MOL_PROPERTY
Grad RMS
SciTegic.value.DoubleValue
0.000000

@<SCITEGIC>MOL_PROPERTY
U
SciTegic.value.DoubleValue
7.689

@<SCITEGIC>MOL_PROPERTY
W
SciTegic.value.DoubleValue
-60.463

@<SCITEGIC>MOL_PROPERTY
W(PB)
SciTegic.value.DoubleValue
-62.772

@<SCITEGIC>MOL_PROPERTY
W(SA)
SciTegic.value.DoubleValue
2.309

@<SCITEGIC>MOL_PROPERTY
Valence
SciTegic.value.DoubleValue
8.197

@<SCITEGIC>MOL_PROPERTY
Coulomb
SciTegic.value.DoubleValue
-1.561

@<SCITEGIC>MOL_PROPERTY
VdW
SciTegic.value.DoubleValue
1.053

@<SCITEGIC>MOL_PROPERTY
VdW6
SciTegic.value.DoubleValue
-7.737

@<SCITEGIC>MOL_PROPERTY
VdW12
SciTegic.value.DoubleValue
8.790

@<SCITEGIC>MOL_PROPERTY
Bond
SciTegic.value.DoubleValue
0.181

@<SCITEGIC>MOL_PROPERTY
Angle
SciTegic.value.DoubleValue
2.780

@<SCITEGIC>MOL_PROPERTY
Pdih
SciTegic.value.DoubleValue
5.235

@<SCITEGIC>MOL_PROPERTY
Idih
SciTegic.value.DoubleValue
0.001

@<SCITEGIC>MOL_PROPERTY
Tether
SciTegic.value.DoubleValue
0.000

@<TRIPOS>MOLECULE
guest-s21_confgen4.mol2 : confsearch ligand conformer 666
          22          21           1
SMALL
USER_CHARGES
 
@<TRIPOS>ATOM
       1    C1      18.859430   22.171380   20.568552 C.2        1 MOL1         0.6145
       2    O1      19.850674   22.772141   20.203787 O.co2      1 MOL1        -0.6735
       3    O2      17.769450   22.691239   20.703653 O.co2      1 MOL1        -0.6735
       4    C2      18.995606   20.688757   20.896536 C.3        1 MOL1        -0.1985
       5    H1      19.754073   20.268471   20.226798 H          1 MOL1         0.0740
       6    H2      18.043630   20.199183   20.658895 H          1 MOL1         0.0740
       7    C3      19.372198   20.434977   22.379569 C.3        1 MOL1        -0.1882
       8    H3      20.350217   20.887881   22.593231 H          1 MOL1         0.0742
       9    H4      18.644633   20.952753   23.019885 H          1 MOL1         0.0742
      10    C4      19.393364   18.937015   22.767359 C.3        1 MOL1        -0.1880
      11    H5      18.416987   18.485500   22.544899 H          1 MOL1         0.0742
      12    H6      19.527058   18.869830   23.854529 H          1 MOL1         0.0742
      13    C5      20.513597   18.134372   22.061059 C.3        1 MOL1        -0.1880
      14    H7      20.379304   18.198081   20.973867 H          1 MOL1         0.0742
      15    H8      21.489749   18.587126   22.282066 H          1 MOL1         0.0742
      16    C6      20.537194   16.638246   22.452417 C.3        1 MOL1        -0.1856
      17    H9      21.262812   16.118922   21.811303 H          1 MOL1         0.0742
      18    H10     19.558620   16.184310   22.243540 H          1 MOL1         0.0742
      19    C7      20.919181   16.395371   23.928816 C.3        1 MOL1        -0.2871
      20    H11     21.879050   16.870516   24.169676 H          1 MOL1         0.0754
      21    H12     21.015305   15.320187   24.127959 H          1 MOL1         0.0754
      22    H13     20.157320   16.791623   24.611441 H          1 MOL1         0.0754
@<TRIPOS>BOND
    1     1     2    1
    2     1     3    2
    3     1     4    1
    4     4     5    1
    5     4     6    1
    6     4     7    1
    7     7     8    1
    8     7     9    1
    9     7    10    1
   10    10    11    1
   11    10    12    1
   12    10    13    1
   13    13    14    1
   14    13    15    1
   15    13    16    1
   16    16    17    1
   17    16    18    1
   18    16    19    1
   19    19    20    1
   20    19    21    1
   21    19    22    1
@<TRIPOS>SUBSTRUCTURE
       1 MOL1            1 RESIDUE      1      MOL     
@<SCITEGIC>MOL_PROPERTY
VConf Rank
SciTegic.value.IntegerValue
666

@<SCITEGIC>MOL_PROPERTY
Conf_Id
SciTegic.value.IntegerValue
28

@<SCITEGIC>MOL_PROPERTY
Delta U+W
SciTegic.value.DoubleValue
0.351

@<SCITEGIC>MOL_PROPERTY
U+W
SciTegic.value.DoubleValue
-52.808

@<SCITEGIC>MOL_PROPERTY
Grad RMS
SciTegic.value.DoubleValue
0.000000

@<SCITEGIC>MOL_PROPERTY
U
SciTegic.value.DoubleValue
7.689

@<SCITEGIC>MOL_PROPERTY
W
SciTegic.value.DoubleValue
-60.498

@<SCITEGIC>MOL_PROPERTY
W(PB)
SciTegic.value.DoubleValue
-62.768

@<SCITEGIC>MOL_PROPERTY
W(SA)
SciTegic.value.DoubleValue
2.270

@<SCITEGIC>MOL_PROPERTY
Valence
SciTegic.value.DoubleValue
8.197

@<SCITEGIC>MOL_PROPERTY
Coulomb
SciTegic.value.DoubleValue
-1.561

@<SCITEGIC>MOL_PROPERTY
VdW
SciTegic.value.DoubleValue
1.053

@<SCITEGIC>MOL_PROPERTY
VdW6
SciTegic.value.DoubleValue
-7.737

@<SCITEGIC>MOL_PROPERTY
VdW12
SciTegic.value.DoubleValue
8.791

@<SCITEGIC>MOL_PROPERTY
Bond
SciTegic.value.DoubleValue
0.181

@<SCITEGIC>MOL_PROPERTY
Angle
SciTegic.value.DoubleValue
2.780

@<SCITEGIC>MOL_PROPERTY
Pdih
SciTegic.value.DoubleValue
5.235

@<SCITEGIC>MOL_PROPERTY
Idih
SciTegic.value.DoubleValue
0.001

@<SCITEGIC>MOL_PROPERTY
Tether
SciTegic.value.DoubleValue
0.000

@<TRIPOS>MOLECULE
guest-s21_confgen4.mol2 : confsearch ligand conformer 667
          22          21           1
SMALL
USER_CHARGES
 
@<TRIPOS>ATOM
       1    C1      20.674890   21.451923   19.653269 C.2        1 MOL1         0.6145
       2    O1      20.104366   22.520555   19.748128 O.co2      1 MOL1        -0.6735
       3    O2      21.849171   21.339437   19.361948 O.co2      1 MOL1        -0.6735
       4    C2      19.878159   20.182959   19.934821 C.3        1 MOL1        -0.1985
       5    H1      20.280085   19.381146   19.303788 H          1 MOL1         0.0740
       6    H2      18.841786   20.354779   19.620139 H          1 MOL1         0.0740
       7    C3      19.922588   19.762893   21.424739 C.3        1 MOL1        -0.1882
       8    H3      20.969714   19.616729   21.720765 H          1 MOL1         0.0742
       9    H4      19.525359   20.579248   22.043673 H          1 MOL1         0.0742
      10    C4      19.111148   18.471736   21.680744 C.3        1 MOL1        -0.1880
      11    H5      19.541018   17.642728   21.101997 H          1 MOL1         0.0742
      12    H6      18.087670   18.613552   21.307458 H          1 MOL1         0.0742
      13    C5      19.037025   18.076447   23.174669 C.3        1 MOL1        -0.1880
      14    H7      18.603452   18.903645   23.753193 H          1 MOL1         0.0742
      15    H8      18.344355   17.229840   23.276616 H          1 MOL1         0.0742
      16    C6      20.404364   17.680518   23.776263 C.3        1 MOL1        -0.1856
      17    H9      21.089508   18.538143   23.755883 H          1 MOL1         0.0742
      18    H10     20.862324   16.889252   23.166856 H          1 MOL1         0.0742
      19    C7      20.260879   17.188323   25.230522 C.3        1 MOL1        -0.2871
      20    H11     19.611108   16.305013   25.284533 H          1 MOL1         0.0754
      21    H12     19.829939   17.970753   25.868864 H          1 MOL1         0.0754
      22    H13     21.239987   16.914273   25.644421 H          1 MOL1         0.0754
@<TRIPOS>BOND
    1     1     2    1
    2     1     3    2
    3     1     4    1
    4     4     5    1
    5     4     6    1
    6     4     7    1
    7     7     8    1
    8     7     9    1
    9     7    10    1
   10    10    11    1
   11    10    12    1
   12    10    13    1
   13    13    14    1
   14    13    15    1
   15    13    16    1
   16    16    17    1
   17    16    18    1
   18    16    19    1
   19    19    20    1
   20    19    21    1
   21    19    22    1
@<TRIPOS>SUBSTRUCTURE
       1 MOL1            1 RESIDUE      1      MOL     
@<SCITEGIC>MOL_PROPERTY
VConf Rank
SciTegic.value.IntegerValue
667

@<SCITEGIC>MOL_PROPERTY
Conf_Id
SciTegic.value.IntegerValue
50

@<SCITEGIC>MOL_PROPERTY
Delta U+W
SciTegic.value.DoubleValue
-0.486

@<SCITEGIC>MOL_PROPERTY
U+W
SciTegic.value.DoubleValue
-53.646

@<SCITEGIC>MOL_PROPERTY
Grad RMS
SciTegic.value.DoubleValue
0.000000

@<SCITEGIC>MOL_PROPERTY
U
SciTegic.value.DoubleValue
7.026

@<SCITEGIC>MOL_PROPERTY
W
SciTegic.value.DoubleValue
-60.672

@<SCITEGIC>MOL_PROPERTY
W(PB)
SciTegic.value.DoubleValue
-62.964

@<SCITEGIC>MOL_PROPERTY
W(SA)
SciTegic.value.DoubleValue
2.292

@<SCITEGIC>MOL_PROPERTY
Valence
SciTegic.value.DoubleValue
7.637

@<SCITEGIC>MOL_PROPERTY
Coulomb
SciTegic.value.DoubleValue
-1.488

@<SCITEGIC>MOL_PROPERTY
VdW
SciTegic.value.DoubleValue
0.877

@<SCITEGIC>MOL_PROPERTY
VdW6
SciTegic.value.DoubleValue
-7.165

@<SCITEGIC>MOL_PROPERTY
VdW12
SciTegic.value.DoubleValue
8.043

@<SCITEGIC>MOL_PROPERTY
Bond
SciTegic.value.DoubleValue
0.134

@<SCITEGIC>MOL_PROPERTY
Angle
SciTegic.value.DoubleValue
2.513

@<SCITEGIC>MOL_PROPERTY
Pdih
SciTegic.value.DoubleValue
4.990

@<SCITEGIC>MOL_PROPERTY
Idih
SciTegic.value.DoubleValue
0.001

@<SCITEGIC>MOL_PROPERTY
Tether
SciTegic.value.DoubleValue
0.000

@<TRIPOS>MOLECULE
guest-s21_confgen4.mol2 : confsearch ligand conformer 668
          22          21           1
SMALL
USER_CHARGES
 
@<TRIPOS>ATOM
       1    C1      17.836038   21.363308   20.062096 C.2        1 MOL1         0.6145
       2    O1      17.392274   22.367034   20.583707 O.co2      1 MOL1        -0.6735
       3    O2      17.217854   20.692294   19.259571 O.co2      1 MOL1        -0.6735
       4    C2      19.238392   20.909379   20.451555 C.3        1 MOL1        -0.1985
       5    H1      19.836522   21.801976   20.670928 H          1 MOL1         0.0740
       6    H2      19.692381   20.420542   19.581162 H          1 MOL1         0.0740
       7    C3      19.244201   19.949167   21.666569 C.3        1 MOL1        -0.1882
       8    H3      18.778517   20.449828   22.526674 H          1 MOL1         0.0742
       9    H4      18.623711   19.074728   21.430316 H          1 MOL1         0.0742
      10    C4      20.677299   19.501514   22.036577 C.3        1 MOL1        -0.1880
      11    H5      21.300141   20.392753   22.193813 H          1 MOL1         0.0742
      12    H6      21.123946   18.954716   21.194849 H          1 MOL1         0.0742
      13    C5      20.740273   18.628904   23.312566 C.3        1 MOL1        -0.1880
      14    H7      21.795582   18.464171   23.569688 H          1 MOL1         0.0742
      15    H8      20.297310   19.176880   24.155441 H          1 MOL1         0.0742
      16    C6      20.042436   17.258761   23.157581 C.3        1 MOL1        -0.1856
      17    H9      20.448751   16.732679   22.282737 H          1 MOL1         0.0742
      18    H10     18.968588   17.399120   22.977276 H          1 MOL1         0.0742
      19    C7      20.229461   16.383883   24.413498 C.3        1 MOL1        -0.2871
      20    H11     19.806920   16.874662   25.300054 H          1 MOL1         0.0754
      21    H12     21.293361   16.190088   24.603015 H          1 MOL1         0.0754
      22    H13     19.725907   15.416369   24.289322 H          1 MOL1         0.0754
@<TRIPOS>BOND
    1     1     2    1
    2     1     3    2
    3     1     4    1
    4     4     5    1
    5     4     6    1
    6     4     7    1
    7     7     8    1
    8     7     9    1
    9     7    10    1
   10    10    11    1
   11    10    12    1
   12    10    13    1
   13    13    14    1
   14    13    15    1
   15    13    16    1
   16    16    17    1
   17    16    18    1
   18    16    19    1
   19    19    20    1
   20    19    21    1
   21    19    22    1
@<TRIPOS>SUBSTRUCTURE
       1 MOL1            1 RESIDUE      1      MOL     
@<SCITEGIC>MOL_PROPERTY
VConf Rank
SciTegic.value.IntegerValue
668

@<SCITEGIC>MOL_PROPERTY
Conf_Id
SciTegic.value.IntegerValue
51

@<SCITEGIC>MOL_PROPERTY
Delta U+W
SciTegic.value.DoubleValue
-0.517

@<SCITEGIC>MOL_PROPERTY
U+W
SciTegic.value.DoubleValue
-53.677

@<SCITEGIC>MOL_PROPERTY
Grad RMS
SciTegic.value.DoubleValue
0.000000

@<SCITEGIC>MOL_PROPERTY
U
SciTegic.value.DoubleValue
7.026

@<SCITEGIC>MOL_PROPERTY
W
SciTegic.value.DoubleValue
-60.703

@<SCITEGIC>MOL_PROPERTY
W(PB)
SciTegic.value.DoubleValue
-63.007

@<SCITEGIC>MOL_PROPERTY
W(SA)
SciTegic.value.DoubleValue
2.304

@<SCITEGIC>MOL_PROPERTY
Valence
SciTegic.value.DoubleValue
7.638

@<SCITEGIC>MOL_PROPERTY
Coulomb
SciTegic.value.DoubleValue
-1.488

@<SCITEGIC>MOL_PROPERTY
VdW
SciTegic.value.DoubleValue
0.877

@<SCITEGIC>MOL_PROPERTY
VdW6
SciTegic.value.DoubleValue
-7.165

@<SCITEGIC>MOL_PROPERTY
VdW12
SciTegic.value.DoubleValue
8.042

@<SCITEGIC>MOL_PROPERTY
Bond
SciTegic.value.DoubleValue
0.134

@<SCITEGIC>MOL_PROPERTY
Angle
SciTegic.value.DoubleValue
2.513

@<SCITEGIC>MOL_PROPERTY
Pdih
SciTegic.value.DoubleValue
4.990

@<SCITEGIC>MOL_PROPERTY
Idih
SciTegic.value.DoubleValue
0.001

@<SCITEGIC>MOL_PROPERTY
Tether
SciTegic.value.DoubleValue
0.000

@<TRIPOS>MOLECULE
guest-s21_confgen4.mol2 : confsearch ligand conformer 669
          22          21           1
SMALL
USER_CHARGES
 
@<TRIPOS>ATOM
       1    C1      23.345152   18.494388   21.621107 C.2        1 MOL1         0.6145
       2    O1      23.621415   17.389905   21.196021 O.co2      1 MOL1        -0.6735
       3    O2      23.504786   19.518365   20.986458 O.co2      1 MOL1        -0.6735
       4    C2      22.784912   18.600477   23.036737 C.3        1 MOL1        -0.1985
       5    H1      22.913714   19.631459   23.388009 H          1 MOL1         0.0740
       6    H2      23.403047   17.965653   23.682453 H          1 MOL1         0.0740
       7    C3      21.299006   18.174187   23.160650 C.3        1 MOL1        -0.1882
       8    H3      21.181086   17.150369   22.779146 H          1 MOL1         0.0742
       9    H4      21.022811   18.149296   24.223495 H          1 MOL1         0.0742
      10    C4      20.342852   19.126527   22.408051 C.3        1 MOL1        -0.1880
      11    H5      20.602128   19.143628   21.340394 H          1 MOL1         0.0742
      12    H6      20.473980   20.150531   22.783866 H          1 MOL1         0.0742
      13    C5      18.867586   18.701627   22.570836 C.3        1 MOL1        -0.1880
      14    H7      18.737267   17.677564   22.194777 H          1 MOL1         0.0742
      15    H8      18.605038   18.686539   23.637560 H          1 MOL1         0.0742
      16    C6      17.912172   19.651775   21.818873 C.3        1 MOL1        -0.1856
      17    H9      18.170691   19.668061   20.750976 H          1 MOL1         0.0742
      18    H10     18.038514   20.677003   22.193582 H          1 MOL1         0.0742
      19    C7      16.439983   19.223967   21.983176 C.3        1 MOL1        -0.2871
      20    H11     16.278291   18.212800   21.587197 H          1 MOL1         0.0754
      21    H12     15.775106   19.910011   21.442464 H          1 MOL1         0.0754
      22    H13     16.145095   19.229296   23.040724 H          1 MOL1         0.0754
@<TRIPOS>BOND
    1     1     2    1
    2     1     3    2
    3     1     4    1
    4     4     5    1
    5     4     6    1
    6     4     7    1
    7     7     8    1
    8     7     9    1
    9     7    10    1
   10    10    11    1
   11    10    12    1
   12    10    13    1
   13    13    14    1
   14    13    15    1
   15    13    16    1
   16    16    17    1
   17    16    18    1
   18    16    19    1
   19    19    20    1
   20    19    21    1
   21    19    22    1
@<TRIPOS>SUBSTRUCTURE
       1 MOL1            1 RESIDUE      1      MOL     
@<SCITEGIC>MOL_PROPERTY
VConf Rank
SciTegic.value.IntegerValue
669

@<SCITEGIC>MOL_PROPERTY
Conf_Id
SciTegic.value.IntegerValue
43

@<SCITEGIC>MOL_PROPERTY
Delta U+W
SciTegic.value.DoubleValue
-0.129

@<SCITEGIC>MOL_PROPERTY
U+W
SciTegic.value.DoubleValue
-53.289

@<SCITEGIC>MOL_PROPERTY
Grad RMS
SciTegic.value.DoubleValue
0.000000

@<SCITEGIC>MOL_PROPERTY
U
SciTegic.value.DoubleValue
7.937

@<SCITEGIC>MOL_PROPERTY
W
SciTegic.value.DoubleValue
-61.225

@<SCITEGIC>MOL_PROPERTY
W(PB)
SciTegic.value.DoubleValue
-63.523

@<SCITEGIC>MOL_PROPERTY
W(SA)
SciTegic.value.DoubleValue
2.297

@<SCITEGIC>MOL_PROPERTY
Valence
SciTegic.value.DoubleValue
7.358

@<SCITEGIC>MOL_PROPERTY
Coulomb
SciTegic.value.DoubleValue
-0.022

@<SCITEGIC>MOL_PROPERTY
VdW
SciTegic.value.DoubleValue
0.601

@<SCITEGIC>MOL_PROPERTY
VdW6
SciTegic.value.DoubleValue
-7.363

@<SCITEGIC>MOL_PROPERTY
VdW12
SciTegic.value.DoubleValue
7.964

@<SCITEGIC>MOL_PROPERTY
Bond
SciTegic.value.DoubleValue
0.121

@<SCITEGIC>MOL_PROPERTY
Angle
SciTegic.value.DoubleValue
2.425

@<SCITEGIC>MOL_PROPERTY
Pdih
SciTegic.value.DoubleValue
4.811

@<SCITEGIC>MOL_PROPERTY
Idih
SciTegic.value.DoubleValue
0.000

@<SCITEGIC>MOL_PROPERTY
Tether
SciTegic.value.DoubleValue
0.000

@<TRIPOS>MOLECULE
guest-s21_confgen4.mol2 : confsearch ligand conformer 670
          22          21           1
SMALL
USER_CHARGES
 
@<TRIPOS>ATOM
       1    C1      21.811938   18.937103   25.094874 C.2        1 MOL1         0.6145
       2    O1      21.499469   18.077599   25.895198 O.co2      1 MOL1        -0.6735
       3    O2      21.839678   20.123086   25.358441 O.co2      1 MOL1        -0.6735
       4    C2      22.208514   18.499194   23.687716 C.3        1 MOL1        -0.1985
       5    H1      22.894259   17.649840   23.789663 H          1 MOL1         0.0740
       6    H2      22.775842   19.310316   23.215356 H          1 MOL1         0.0740
       7    C3      21.009499   18.092244   22.792309 C.3        1 MOL1        -0.1882
       8    H3      21.392900   17.663851   21.856347 H          1 MOL1         0.0742
       9    H4      20.435326   17.299162   23.291305 H          1 MOL1         0.0742
      10    C4      20.081292   19.283335   22.464708 C.3        1 MOL1        -0.1880
      11    H5      20.662572   20.078488   21.978025 H          1 MOL1         0.0742
      12    H6      19.679947   19.706810   23.395836 H          1 MOL1         0.0742
      13    C5      18.913070   18.862342   21.547386 C.3        1 MOL1        -0.1880
      14    H7      19.311850   18.441148   20.614311 H          1 MOL1         0.0742
      15    H8      18.332261   18.067220   22.034777 H          1 MOL1         0.0742
      16    C6      17.985241   20.051153   21.220415 C.3        1 MOL1        -0.1856
      17    H9      18.562483   20.847967   20.731190 H          1 MOL1         0.0742
      18    H10     17.582950   20.473992   22.151475 H          1 MOL1         0.0742
      19    C7      16.819540   19.626833   20.304745 C.3        1 MOL1        -0.2871
      20    H11     17.193150   19.228771   19.352192 H          1 MOL1         0.0754
      21    H12     16.170364   20.483766   20.082661 H          1 MOL1         0.0754
      22    H13     16.206244   18.852018   20.783212 H          1 MOL1         0.0754
@<TRIPOS>BOND
    1     1     2    1
    2     1     3    2
    3     1     4    1
    4     4     5    1
    5     4     6    1
    6     4     7    1
    7     7     8    1
    8     7     9    1
    9     7    10    1
   10    10    11    1
   11    10    12    1
   12    10    13    1
   13    13    14    1
   14    13    15    1
   15    13    16    1
   16    16    17    1
   17    16    18    1
   18    16    19    1
   19    19    20    1
   20    19    21    1
   21    19    22    1
@<TRIPOS>SUBSTRUCTURE
       1 MOL1            1 RESIDUE      1      MOL     
@<SCITEGIC>MOL_PROPERTY
VConf Rank
SciTegic.value.IntegerValue
670

@<SCITEGIC>MOL_PROPERTY
Conf_Id
SciTegic.value.IntegerValue
44

@<SCITEGIC>MOL_PROPERTY
Delta U+W
SciTegic.value.DoubleValue
-0.155

@<SCITEGIC>MOL_PROPERTY
U+W
SciTegic.value.DoubleValue
-53.314

@<SCITEGIC>MOL_PROPERTY
Grad RMS
SciTegic.value.DoubleValue
0.000000

@<SCITEGIC>MOL_PROPERTY
U
SciTegic.value.DoubleValue
7.937

@<SCITEGIC>MOL_PROPERTY
W
SciTegic.value.DoubleValue
-61.252

@<SCITEGIC>MOL_PROPERTY
W(PB)
SciTegic.value.DoubleValue
-63.556

@<SCITEGIC>MOL_PROPERTY
W(SA)
SciTegic.value.DoubleValue
2.304

@<SCITEGIC>MOL_PROPERTY
Valence
SciTegic.value.DoubleValue
7.358

@<SCITEGIC>MOL_PROPERTY
Coulomb
SciTegic.value.DoubleValue
-0.021

@<SCITEGIC>MOL_PROPERTY
VdW
SciTegic.value.DoubleValue
0.600

@<SCITEGIC>MOL_PROPERTY
VdW6
SciTegic.value.DoubleValue
-7.363

@<SCITEGIC>MOL_PROPERTY
VdW12
SciTegic.value.DoubleValue
7.964

@<SCITEGIC>MOL_PROPERTY
Bond
SciTegic.value.DoubleValue
0.121

@<SCITEGIC>MOL_PROPERTY
Angle
SciTegic.value.DoubleValue
2.425

@<SCITEGIC>MOL_PROPERTY
Pdih
SciTegic.value.DoubleValue
4.811

@<SCITEGIC>MOL_PROPERTY
Idih
SciTegic.value.DoubleValue
0.001

@<SCITEGIC>MOL_PROPERTY
Tether
SciTegic.value.DoubleValue
0.000

@<TRIPOS>MOLECULE
guest-s21_confgen4.mol2 : confsearch ligand conformer 671
          22          21           1
SMALL
USER_CHARGES
 
@<TRIPOS>ATOM
       1    C1      18.905664   15.720291   21.363265 C.2        1 MOL1         0.6145
       2    O1      19.855234   14.970567   21.477956 O.co2      1 MOL1        -0.6735
       3    O2      18.222161   15.790842   20.360912 O.co2      1 MOL1        -0.6735
       4    C2      18.541792   16.606926   22.551031 C.3        1 MOL1        -0.1985
       5    H1      18.563784   15.976977   23.448088 H          1 MOL1         0.0740
       6    H2      17.507022   16.949348   22.429008 H          1 MOL1         0.0740
       7    C3      19.487477   17.820424   22.747821 C.3        1 MOL1        -0.1882
       8    H3      19.241984   18.300656   23.703476 H          1 MOL1         0.0742
       9    H4      20.523990   17.464609   22.828058 H          1 MOL1         0.0742
      10    C4      19.374524   18.853386   21.600894 C.3        1 MOL1        -0.1880
      11    H5      18.347306   19.239360   21.549427 H          1 MOL1         0.0742
      12    H6      19.563840   18.350216   20.642786 H          1 MOL1         0.0742
      13    C5      20.366002   20.033669   21.734044 C.3        1 MOL1        -0.1880
      14    H7      21.393085   19.647210   21.785696 H          1 MOL1         0.0742
      15    H8      20.308401   20.640393   20.820003 H          1 MOL1         0.0742
      16    C6      20.087736   20.939731   22.954718 C.3        1 MOL1        -0.1856
      17    H9      20.219050   20.372388   23.885359 H          1 MOL1         0.0742
      18    H10     19.043987   21.282164   22.931876 H          1 MOL1         0.0742
      19    C7      21.027169   22.162316   22.976901 C.3        1 MOL1        -0.2871
      20    H11     22.078129   21.848721   23.027160 H          1 MOL1         0.0754
      21    H12     20.819651   22.793695   23.850605 H          1 MOL1         0.0754
      22    H13     20.895071   22.776266   22.076361 H          1 MOL1         0.0754
@<TRIPOS>BOND
    1     1     2    1
    2     1     3    2
    3     1     4    1
    4     4     5    1
    5     4     6    1
    6     4     7    1
    7     7     8    1
    8     7     9    1
    9     7    10    1
   10    10    11    1
   11    10    12    1
   12    10    13    1
   13    13    14    1
   14    13    15    1
   15    13    16    1
   16    16    17    1
   17    16    18    1
   18    16    19    1
   19    19    20    1
   20    19    21    1
   21    19    22    1
@<TRIPOS>SUBSTRUCTURE
       1 MOL1            1 RESIDUE      1      MOL     
@<SCITEGIC>MOL_PROPERTY
VConf Rank
SciTegic.value.IntegerValue
671

@<SCITEGIC>MOL_PROPERTY
Conf_Id
SciTegic.value.IntegerValue
53

@<SCITEGIC>MOL_PROPERTY
Delta U+W
SciTegic.value.DoubleValue
0.723

@<SCITEGIC>MOL_PROPERTY
U+W
SciTegic.value.DoubleValue
-52.436

@<SCITEGIC>MOL_PROPERTY
Grad RMS
SciTegic.value.DoubleValue
0.000000

@<SCITEGIC>MOL_PROPERTY
U
SciTegic.value.DoubleValue
8.587

@<SCITEGIC>MOL_PROPERTY
W
SciTegic.value.DoubleValue
-61.022

@<SCITEGIC>MOL_PROPERTY
W(PB)
SciTegic.value.DoubleValue
-63.285

@<SCITEGIC>MOL_PROPERTY
W(SA)
SciTegic.value.DoubleValue
2.263

@<SCITEGIC>MOL_PROPERTY
Valence
SciTegic.value.DoubleValue
7.933

@<SCITEGIC>MOL_PROPERTY
Coulomb
SciTegic.value.DoubleValue
-0.124

@<SCITEGIC>MOL_PROPERTY
VdW
SciTegic.value.DoubleValue
0.778

@<SCITEGIC>MOL_PROPERTY
VdW6
SciTegic.value.DoubleValue
-7.981

@<SCITEGIC>MOL_PROPERTY
VdW12
SciTegic.value.DoubleValue
8.759

@<SCITEGIC>MOL_PROPERTY
Bond
SciTegic.value.DoubleValue
0.160

@<SCITEGIC>MOL_PROPERTY
Angle
SciTegic.value.DoubleValue
2.698

@<SCITEGIC>MOL_PROPERTY
Pdih
SciTegic.value.DoubleValue
5.074

@<SCITEGIC>MOL_PROPERTY
Idih
SciTegic.value.DoubleValue
0.001

@<SCITEGIC>MOL_PROPERTY
Tether
SciTegic.value.DoubleValue
0.000

@<TRIPOS>MOLECULE
guest-s21_confgen4.mol2 : confsearch ligand conformer 672
          22          21           1
SMALL
USER_CHARGES
 
@<TRIPOS>ATOM
       1    C1      18.334282   21.004503   20.092769 C.2        1 MOL1         0.6145
       2    O1      17.655334   20.337240   19.337549 O.co2      1 MOL1        -0.6735
       3    O2      18.393655   22.217442   20.049904 O.co2      1 MOL1        -0.6735
       4    C2      19.138621   20.281957   21.167463 C.3        1 MOL1        -0.1985
       5    H1      20.042784   20.868620   21.368951 H          1 MOL1         0.0740
       6    H2      19.455109   19.318431   20.752514 H          1 MOL1         0.0740
       7    C3      18.335893   20.067417   22.475413 C.3        1 MOL1        -0.1882
       8    H3      17.916079   21.031983   22.792889 H          1 MOL1         0.0742
       9    H4      17.478398   19.411986   22.269581 H          1 MOL1         0.0742
      10    C4      19.166303   19.483933   23.646153 C.3        1 MOL1        -0.1880
      11    H5      18.505928   19.424179   24.522098 H          1 MOL1         0.0742
      12    H6      19.968258   20.181346   23.924432 H          1 MOL1         0.0742
      13    C5      19.748712   18.071935   23.383916 C.3        1 MOL1        -0.1880
      14    H7      19.714620   17.501666   24.322332 H          1 MOL1         0.0742
      15    H8      19.112829   17.527464   22.672461 H          1 MOL1         0.0742
      16    C6      21.213407   18.095145   22.889060 C.3        1 MOL1        -0.1856
      17    H9      21.846202   18.591876   23.637408 H          1 MOL1         0.0742
      18    H10     21.300277   18.681051   21.966275 H          1 MOL1         0.0742
      19    C7      21.747318   16.670917   22.636382 C.3        1 MOL1        -0.2871
      20    H11     21.711803   16.069145   23.553955 H          1 MOL1         0.0754
      21    H12     22.789346   16.703737   22.292676 H          1 MOL1         0.0754
      22    H13     21.152833   16.159894   21.867745 H          1 MOL1         0.0754
@<TRIPOS>BOND
    1     1     2    1
    2     1     3    2
    3     1     4    1
    4     4     5    1
    5     4     6    1
    6     4     7    1
    7     7     8    1
    8     7     9    1
    9     7    10    1
   10    10    11    1
   11    10    12    1
   12    10    13    1
   13    13    14    1
   14    13    15    1
   15    13    16    1
   16    16    17    1
   17    16    18    1
   18    16    19    1
   19    19    20    1
   20    19    21    1
   21    19    22    1
@<TRIPOS>SUBSTRUCTURE
       1 MOL1            1 RESIDUE      1      MOL     
@<SCITEGIC>MOL_PROPERTY
VConf Rank
SciTegic.value.IntegerValue
672

@<SCITEGIC>MOL_PROPERTY
Conf_Id
SciTegic.value.IntegerValue
5

@<SCITEGIC>MOL_PROPERTY
Delta U+W
SciTegic.value.DoubleValue
2.167

@<SCITEGIC>MOL_PROPERTY
U+W
SciTegic.value.DoubleValue
-50.993

@<SCITEGIC>MOL_PROPERTY
Grad RMS
SciTegic.value.DoubleValue
0.000000

@<SCITEGIC>MOL_PROPERTY
U
SciTegic.value.DoubleValue
10.045

@<SCITEGIC>MOL_PROPERTY
W
SciTegic.value.DoubleValue
-61.037

@<SCITEGIC>MOL_PROPERTY
W(PB)
SciTegic.value.DoubleValue
-63.303

@<SCITEGIC>MOL_PROPERTY
W(SA)
SciTegic.value.DoubleValue
2.266

@<SCITEGIC>MOL_PROPERTY
Valence
SciTegic.value.DoubleValue
10.100

@<SCITEGIC>MOL_PROPERTY
Coulomb
SciTegic.value.DoubleValue
-0.883

@<SCITEGIC>MOL_PROPERTY
VdW
SciTegic.value.DoubleValue
0.828

@<SCITEGIC>MOL_PROPERTY
VdW6
SciTegic.value.DoubleValue
-8.177

@<SCITEGIC>MOL_PROPERTY
VdW12
SciTegic.value.DoubleValue
9.005

@<SCITEGIC>MOL_PROPERTY
Bond
SciTegic.value.DoubleValue
0.182

@<SCITEGIC>MOL_PROPERTY
Angle
SciTegic.value.DoubleValue
2.988

@<SCITEGIC>MOL_PROPERTY
Pdih
SciTegic.value.DoubleValue
6.930

@<SCITEGIC>MOL_PROPERTY
Idih
SciTegic.value.DoubleValue
0.001

@<SCITEGIC>MOL_PROPERTY
Tether
SciTegic.value.DoubleValue
0.000

@<TRIPOS>MOLECULE
guest-s21_confgen4.mol2 : confsearch ligand conformer 673
          22          21           1
SMALL
USER_CHARGES
 
@<TRIPOS>ATOM
       1    C1      19.116759   20.307544   25.289392 C.2        1 MOL1         0.6145
       2    O1      18.084229   20.937566   25.173099 O.co2      1 MOL1        -0.6735
       3    O2      19.779526   20.284459   26.307622 O.co2      1 MOL1        -0.6735
       4    C2      19.620595   19.521073   24.084562 C.3        1 MOL1        -0.1985
       5    H1      18.744186   19.159896   23.534845 H          1 MOL1         0.0740
       6    H2      20.164734   18.643511   24.453448 H          1 MOL1         0.0740
       7    C3      20.529567   20.364088   23.154919 C.3        1 MOL1        -0.1882
       8    H3      19.944690   21.192715   22.732364 H          1 MOL1         0.0742
       9    H4      21.321849   20.824984   23.760960 H          1 MOL1         0.0742
      10    C4      21.192959   19.559378   22.009046 C.3        1 MOL1        -0.1880
      11    H5      21.858537   18.790204   22.424174 H          1 MOL1         0.0742
      12    H6      21.843894   20.249211   21.454644 H          1 MOL1         0.0742
      13    C5      20.197343   18.924173   21.005566 C.3        1 MOL1        -0.1880
      14    H7      19.272907   19.516395   20.964892 H          1 MOL1         0.0742
      15    H8      20.636918   18.974814   19.999980 H          1 MOL1         0.0742
      16    C6      19.875688   17.443791   21.315023 C.3        1 MOL1        -0.1856
      17    H9      19.460395   17.341481   22.324691 H          1 MOL1         0.0742
      18    H10     20.802819   16.854522   21.295399 H          1 MOL1         0.0742
      19    C7      18.878559   16.857002   20.295834 C.3        1 MOL1        -0.2871
      20    H11     17.928423   17.406735   20.315657 H          1 MOL1         0.0754
      21    H12     18.666003   15.804590   20.524486 H          1 MOL1         0.0754
      22    H13     19.282890   16.907444   19.276371 H          1 MOL1         0.0754
@<TRIPOS>BOND
    1     1     2    1
    2     1     3    2
    3     1     4    1
    4     4     5    1
    5     4     6    1
    6     4     7    1
    7     7     8    1
    8     7     9    1
    9     7    10    1
   10    10    11    1
   11    10    12    1
   12    10    13    1
   13    13    14    1
   14    13    15    1
   15    13    16    1
   16    16    17    1
   17    16    18    1
   18    16    19    1
   19    19    20    1
   20    19    21    1
   21    19    22    1
@<TRIPOS>SUBSTRUCTURE
       1 MOL1            1 RESIDUE      1      MOL     
@<SCITEGIC>MOL_PROPERTY
VConf Rank
SciTegic.value.IntegerValue
673

@<SCITEGIC>MOL_PROPERTY
Conf_Id
SciTegic.value.IntegerValue
6

@<SCITEGIC>MOL_PROPERTY
Delta U+W
SciTegic.value.DoubleValue
2.118

@<SCITEGIC>MOL_PROPERTY
U+W
SciTegic.value.DoubleValue
-51.042

@<SCITEGIC>MOL_PROPERTY
Grad RMS
SciTegic.value.DoubleValue
0.000000

@<SCITEGIC>MOL_PROPERTY
U
SciTegic.value.DoubleValue
10.045

@<SCITEGIC>MOL_PROPERTY
W
SciTegic.value.DoubleValue
-61.086

@<SCITEGIC>MOL_PROPERTY
W(PB)
SciTegic.value.DoubleValue
-63.356

@<SCITEGIC>MOL_PROPERTY
W(SA)
SciTegic.value.DoubleValue
2.270

@<SCITEGIC>MOL_PROPERTY
Valence
SciTegic.value.DoubleValue
10.100

@<SCITEGIC>MOL_PROPERTY
Coulomb
SciTegic.value.DoubleValue
-0.883

@<SCITEGIC>MOL_PROPERTY
VdW
SciTegic.value.DoubleValue
0.828

@<SCITEGIC>MOL_PROPERTY
VdW6
SciTegic.value.DoubleValue
-8.177

@<SCITEGIC>MOL_PROPERTY
VdW12
SciTegic.value.DoubleValue
9.004

@<SCITEGIC>MOL_PROPERTY
Bond
SciTegic.value.DoubleValue
0.182

@<SCITEGIC>MOL_PROPERTY
Angle
SciTegic.value.DoubleValue
2.988

@<SCITEGIC>MOL_PROPERTY
Pdih
SciTegic.value.DoubleValue
6.930

@<SCITEGIC>MOL_PROPERTY
Idih
SciTegic.value.DoubleValue
0.001

@<SCITEGIC>MOL_PROPERTY
Tether
SciTegic.value.DoubleValue
0.000

@<TRIPOS>MOLECULE
guest-s21_confgen4.mol2 : confsearch ligand conformer 674
          22          21           1
SMALL
USER_CHARGES
 
@<TRIPOS>ATOM
       1    C1      19.792757   16.343903   23.225683 C.2        1 MOL1         0.6145
       2    O1      18.865367   16.110669   23.976046 O.co2      1 MOL1        -0.6735
       3    O2      20.955135   16.355916   23.580348 O.co2      1 MOL1        -0.6735
       4    C2      19.489639   16.563960   21.744754 C.3        1 MOL1        -0.1985
       5    H1      19.056284   15.626892   21.376463 H          1 MOL1         0.0740
       6    H2      20.433591   16.706531   21.204873 H          1 MOL1         0.0740
       7    C3      18.510049   17.730510   21.433872 C.3        1 MOL1        -0.1882
       8    H3      18.090732   17.563128   20.432584 H          1 MOL1         0.0742
       9    H4      17.658032   17.699114   22.127164 H          1 MOL1         0.0742
      10    C4      19.153143   19.139478   21.446116 C.3        1 MOL1        -0.1880
      11    H5      18.413125   19.856244   21.064548 H          1 MOL1         0.0742
      12    H6      19.998497   19.166101   20.745047 H          1 MOL1         0.0742
      13    C5      19.621787   19.606312   22.842879 C.3        1 MOL1        -0.1880
      14    H7      18.804662   19.482548   23.566782 H          1 MOL1         0.0742
      15    H8      20.453474   18.978392   23.186503 H          1 MOL1         0.0742
      16    C6      20.080476   21.079852   22.827689 C.3        1 MOL1        -0.1856
      17    H9      19.254249   21.722607   22.493669 H          1 MOL1         0.0742
      18    H10     20.896609   21.205589   22.102753 H          1 MOL1         0.0742
      19    C7      20.556229   21.540770   24.220036 C.3        1 MOL1        -0.2871
      20    H11     19.748835   21.454723   24.959008 H          1 MOL1         0.0754
      21    H12     20.879526   22.589423   24.191221 H          1 MOL1         0.0754
      22    H13     21.403288   20.933867   24.565958 H          1 MOL1         0.0754
@<TRIPOS>BOND
    1     1     2    1
    2     1     3    2
    3     1     4    1
    4     4     5    1
    5     4     6    1
    6     4     7    1
    7     7     8    1
    8     7     9    1
    9     7    10    1
   10    10    11    1
   11    10    12    1
   12    10    13    1
   13    13    14    1
   14    13    15    1
   15    13    16    1
   16    16    17    1
   17    16    18    1
   18    16    19    1
   19    19    20    1
   20    19    21    1
   21    19    22    1
@<TRIPOS>SUBSTRUCTURE
       1 MOL1            1 RESIDUE      1      MOL     
@<SCITEGIC>MOL_PROPERTY
VConf Rank
SciTegic.value.IntegerValue
674

@<SCITEGIC>MOL_PROPERTY
Conf_Id
SciTegic.value.IntegerValue
8

@<SCITEGIC>MOL_PROPERTY
Delta U+W
SciTegic.value.DoubleValue
1.886

@<SCITEGIC>MOL_PROPERTY
U+W
SciTegic.value.DoubleValue
-51.274

@<SCITEGIC>MOL_PROPERTY
Grad RMS
SciTegic.value.DoubleValue
0.000000

@<SCITEGIC>MOL_PROPERTY
U
SciTegic.value.DoubleValue
11.237

@<SCITEGIC>MOL_PROPERTY
W
SciTegic.value.DoubleValue
-62.510

@<SCITEGIC>MOL_PROPERTY
W(PB)
SciTegic.value.DoubleValue
-64.777

@<SCITEGIC>MOL_PROPERTY
W(SA)
SciTegic.value.DoubleValue
2.267

@<SCITEGIC>MOL_PROPERTY
Valence
SciTegic.value.DoubleValue
9.029

@<SCITEGIC>MOL_PROPERTY
Coulomb
SciTegic.value.DoubleValue
1.667

@<SCITEGIC>MOL_PROPERTY
VdW
SciTegic.value.DoubleValue
0.540

@<SCITEGIC>MOL_PROPERTY
VdW6
SciTegic.value.DoubleValue
-8.825

@<SCITEGIC>MOL_PROPERTY
VdW12
SciTegic.value.DoubleValue
9.365

@<SCITEGIC>MOL_PROPERTY
Bond
SciTegic.value.DoubleValue
0.186

@<SCITEGIC>MOL_PROPERTY
Angle
SciTegic.value.DoubleValue
3.195

@<SCITEGIC>MOL_PROPERTY
Pdih
SciTegic.value.DoubleValue
5.642

@<SCITEGIC>MOL_PROPERTY
Idih
SciTegic.value.DoubleValue
0.007

@<SCITEGIC>MOL_PROPERTY
Tether
SciTegic.value.DoubleValue
0.000

@<TRIPOS>MOLECULE
guest-s21_confgen4.mol2 : confsearch ligand conformer 675
          22          21           1
SMALL
USER_CHARGES
 
@<TRIPOS>ATOM
       1    C1      21.764591   20.389238   20.685873 C.2        1 MOL1         0.6145
       2    O1      21.292084   21.458075   21.019173 O.co2      1 MOL1        -0.6735
       3    O2      22.032189   20.102162   19.535531 O.co2      1 MOL1        -0.6735
       4    C2      22.067200   19.361239   21.772523 C.3        1 MOL1        -0.1985
       5    H1      22.038406   19.861203   22.747159 H          1 MOL1         0.0740
       6    H2      23.101488   19.028557   21.626598 H          1 MOL1         0.0740
       7    C3      21.124941   18.126281   21.759408 C.3        1 MOL1        -0.1882
       8    H3      21.240878   17.607118   20.797974 H          1 MOL1         0.0742
       9    H4      21.449619   17.416904   22.532518 H          1 MOL1         0.0742
      10    C4      19.626147   18.456358   21.967729 C.3        1 MOL1        -0.1880
      11    H5      19.054923   17.527656   21.844404 H          1 MOL1         0.0742
      12    H6      19.283126   19.138216   21.177584 H          1 MOL1         0.0742
      13    C5      19.317566   19.071823   23.354605 C.3        1 MOL1        -0.1880
      14    H7      19.676833   18.401935   24.147492 H          1 MOL1         0.0742
      15    H8      19.871040   20.013396   23.464328 H          1 MOL1         0.0742
      16    C6      17.816434   19.373874   23.572245 C.3        1 MOL1        -0.1856
      17    H9      17.450815   20.031508   22.771484 H          1 MOL1         0.0742
      18    H10     17.703744   19.935398   24.509885 H          1 MOL1         0.0742
      19    C7      16.938642   18.105520   23.646898 C.3        1 MOL1        -0.2871
      20    H11     16.921005   17.571903   22.688624 H          1 MOL1         0.0754
      21    H12     15.903298   18.370239   23.897667 H          1 MOL1         0.0754
      22    H13     17.307533   17.417225   24.418435 H          1 MOL1         0.0754
@<TRIPOS>BOND
    1     1     2    1
    2     1     3    2
    3     1     4    1
    4     4     5    1
    5     4     6    1
    6     4     7    1
    7     7     8    1
    8     7     9    1
    9     7    10    1
   10    10    11    1
   11    10    12    1
   12    10    13    1
   13    13    14    1
   14    13    15    1
   15    13    16    1
   16    16    17    1
   17    16    18    1
   18    16    19    1
   19    19    20    1
   20    19    21    1
   21    19    22    1
@<TRIPOS>SUBSTRUCTURE
       1 MOL1            1 RESIDUE      1      MOL     
@<SCITEGIC>MOL_PROPERTY
VConf Rank
SciTegic.value.IntegerValue
675

@<SCITEGIC>MOL_PROPERTY
Conf_Id
SciTegic.value.IntegerValue
93

@<SCITEGIC>MOL_PROPERTY
Delta U+W
SciTegic.value.DoubleValue
1.836

@<SCITEGIC>MOL_PROPERTY
U+W
SciTegic.value.DoubleValue
-51.323

@<SCITEGIC>MOL_PROPERTY
Grad RMS
SciTegic.value.DoubleValue
0.000000

@<SCITEGIC>MOL_PROPERTY
U
SciTegic.value.DoubleValue
10.427

@<SCITEGIC>MOL_PROPERTY
W
SciTegic.value.DoubleValue
-61.751

@<SCITEGIC>MOL_PROPERTY
W(PB)
SciTegic.value.DoubleValue
-63.980

@<SCITEGIC>MOL_PROPERTY
W(SA)
SciTegic.value.DoubleValue
2.230

@<SCITEGIC>MOL_PROPERTY
Valence
SciTegic.value.DoubleValue
8.446

@<SCITEGIC>MOL_PROPERTY
Coulomb
SciTegic.value.DoubleValue
1.306

@<SCITEGIC>MOL_PROPERTY
VdW
SciTegic.value.DoubleValue
0.676

@<SCITEGIC>MOL_PROPERTY
VdW6
SciTegic.value.DoubleValue
-8.928

@<SCITEGIC>MOL_PROPERTY
VdW12
SciTegic.value.DoubleValue
9.604

@<SCITEGIC>MOL_PROPERTY
Bond
SciTegic.value.DoubleValue
0.209

@<SCITEGIC>MOL_PROPERTY
Angle
SciTegic.value.DoubleValue
3.066

@<SCITEGIC>MOL_PROPERTY
Pdih
SciTegic.value.DoubleValue
5.170

@<SCITEGIC>MOL_PROPERTY
Idih
SciTegic.value.DoubleValue
0.001

@<SCITEGIC>MOL_PROPERTY
Tether
SciTegic.value.DoubleValue
0.000

@<TRIPOS>MOLECULE
guest-s21_confgen4.mol2 : confsearch ligand conformer 676
          22          21           1
SMALL
USER_CHARGES
 
@<TRIPOS>ATOM
       1    C1      22.792451   19.081030   22.206349 C.2        1 MOL1         0.6145
       2    O1      23.522268   20.039835   22.365613 O.co2      1 MOL1        -0.6735
       3    O2      22.693618   18.479062   21.155333 O.co2      1 MOL1        -0.6735
       4    C2      21.979620   18.589837   23.401002 C.3        1 MOL1        -0.1985
       5    H1      22.671695   18.486209   24.244813 H          1 MOL1         0.0740
       6    H2      21.606675   17.582971   23.182271 H          1 MOL1         0.0740
       7    C3      20.813602   19.532427   23.807299 C.3        1 MOL1        -0.1882
       8    H3      20.322606   19.132339   24.704619 H          1 MOL1         0.0742
       9    H4      21.233930   20.505910   24.095363 H          1 MOL1         0.0742
      10    C4      19.751512   19.757585   22.702763 C.3        1 MOL1        -0.1880
      11    H5      20.227918   20.191263   21.812884 H          1 MOL1         0.0742
      12    H6      19.037627   20.506760   23.067593 H          1 MOL1         0.0742
      13    C5      18.990199   18.468452   22.307819 C.3        1 MOL1        -0.1880
      14    H7      19.704245   17.730585   21.919713 H          1 MOL1         0.0742
      15    H8      18.528771   18.020896   23.198477 H          1 MOL1         0.0742
      16    C6      17.909835   18.700343   21.225675 C.3        1 MOL1        -0.1856
      17    H9      17.522625   17.724553   20.901515 H          1 MOL1         0.0742
      18    H10     18.366220   19.162466   20.339371 H          1 MOL1         0.0742
      19    C7      16.726649   19.564577   21.713504 C.3        1 MOL1        -0.2871
      20    H11     17.043188   20.591317   21.934769 H          1 MOL1         0.0754
      21    H12     16.276861   19.139179   22.620050 H          1 MOL1         0.0754
      22    H13     15.947067   19.617213   20.942544 H          1 MOL1         0.0754
@<TRIPOS>BOND
    1     1     2    1
    2     1     3    2
    3     1     4    1
    4     4     5    1
    5     4     6    1
    6     4     7    1
    7     7     8    1
    8     7     9    1
    9     7    10    1
   10    10    11    1
   11    10    12    1
   12    10    13    1
   13    13    14    1
   14    13    15    1
   15    13    16    1
   16    16    17    1
   17    16    18    1
   18    16    19    1
   19    19    20    1
   20    19    21    1
   21    19    22    1
@<TRIPOS>SUBSTRUCTURE
       1 MOL1            1 RESIDUE      1      MOL     
@<SCITEGIC>MOL_PROPERTY
VConf Rank
SciTegic.value.IntegerValue
676

@<SCITEGIC>MOL_PROPERTY
Conf_Id
SciTegic.value.IntegerValue
70

@<SCITEGIC>MOL_PROPERTY
Delta U+W
SciTegic.value.DoubleValue
1.803

@<SCITEGIC>MOL_PROPERTY
U+W
SciTegic.value.DoubleValue
-51.356

@<SCITEGIC>MOL_PROPERTY
Grad RMS
SciTegic.value.DoubleValue
0.000000

@<SCITEGIC>MOL_PROPERTY
U
SciTegic.value.DoubleValue
10.428

@<SCITEGIC>MOL_PROPERTY
W
SciTegic.value.DoubleValue
-61.784

@<SCITEGIC>MOL_PROPERTY
W(PB)
SciTegic.value.DoubleValue
-64.014

@<SCITEGIC>MOL_PROPERTY
W(SA)
SciTegic.value.DoubleValue
2.230

@<SCITEGIC>MOL_PROPERTY
Valence
SciTegic.value.DoubleValue
8.445

@<SCITEGIC>MOL_PROPERTY
Coulomb
SciTegic.value.DoubleValue
1.306

@<SCITEGIC>MOL_PROPERTY
VdW
SciTegic.value.DoubleValue
0.676

@<SCITEGIC>MOL_PROPERTY
VdW6
SciTegic.value.DoubleValue
-8.929

@<SCITEGIC>MOL_PROPERTY
VdW12
SciTegic.value.DoubleValue
9.605

@<SCITEGIC>MOL_PROPERTY
Bond
SciTegic.value.DoubleValue
0.209

@<SCITEGIC>MOL_PROPERTY
Angle
SciTegic.value.DoubleValue
3.066

@<SCITEGIC>MOL_PROPERTY
Pdih
SciTegic.value.DoubleValue
5.170

@<SCITEGIC>MOL_PROPERTY
Idih
SciTegic.value.DoubleValue
0.001

@<SCITEGIC>MOL_PROPERTY
Tether
SciTegic.value.DoubleValue
0.000

@<TRIPOS>MOLECULE
guest-s21_confgen4.mol2 : confsearch ligand conformer 677
          22          21           1
SMALL
USER_CHARGES
 
@<TRIPOS>ATOM
       1    C1      21.051407   18.145827   19.476990 C.2        1 MOL1         0.6145
       2    O1      22.017862   18.875967   19.378128 O.co2      1 MOL1        -0.6735
       3    O2      20.168100   18.083221   18.644687 O.co2      1 MOL1        -0.6735
       4    C2      20.954360   17.243710   20.704126 C.3        1 MOL1        -0.1985
       5    H1      21.940910   16.790707   20.857572 H          1 MOL1         0.0740
       6    H2      20.260032   16.424251   20.482236 H          1 MOL1         0.0740
       7    C3      20.517117   17.982496   21.995635 C.3        1 MOL1        -0.1882
       8    H3      20.600636   17.293193   22.846606 H          1 MOL1         0.0742
       9    H4      21.214776   18.808731   22.185997 H          1 MOL1         0.0742
      10    C4      19.066880   18.515515   21.910381 C.3        1 MOL1        -0.1880
      11    H5      18.398598   17.688861   21.633105 H          1 MOL1         0.0742
      12    H6      18.989255   19.259065   21.105140 H          1 MOL1         0.0742
      13    C5      18.559287   19.134723   23.234186 C.3        1 MOL1        -0.1880
      14    H7      17.492472   19.371331   23.120994 H          1 MOL1         0.0742
      15    H8      18.628580   18.390607   24.039391 H          1 MOL1         0.0742
      16    C6      19.316788   20.417936   23.643729 C.3        1 MOL1        -0.1856
      17    H9      19.292493   21.142030   22.817674 H          1 MOL1         0.0742
      18    H10     20.372744   20.188364   23.837667 H          1 MOL1         0.0742
      19    C7      18.703091   21.058710   24.904886 C.3        1 MOL1        -0.2871
      20    H11     17.654978   21.337387   24.734149 H          1 MOL1         0.0754
      21    H12     19.253604   21.966374   25.184424 H          1 MOL1         0.0754
      22    H13     18.739481   20.364795   25.754903 H          1 MOL1         0.0754
@<TRIPOS>BOND
    1     1     2    1
    2     1     3    2
    3     1     4    1
    4     4     5    1
    5     4     6    1
    6     4     7    1
    7     7     8    1
    8     7     9    1
    9     7    10    1
   10    10    11    1
   11    10    12    1
   12    10    13    1
   13    13    14    1
   14    13    15    1
   15    13    16    1
   16    16    17    1
   17    16    18    1
   18    16    19    1
   19    19    20    1
   20    19    21    1
   21    19    22    1
@<TRIPOS>SUBSTRUCTURE
       1 MOL1            1 RESIDUE      1      MOL     
@<SCITEGIC>MOL_PROPERTY
VConf Rank
SciTegic.value.IntegerValue
677

@<SCITEGIC>MOL_PROPERTY
Conf_Id
SciTegic.value.IntegerValue
85

@<SCITEGIC>MOL_PROPERTY
Delta U+W
SciTegic.value.DoubleValue
0.707

@<SCITEGIC>MOL_PROPERTY
U+W
SciTegic.value.DoubleValue
-52.452

@<SCITEGIC>MOL_PROPERTY
Grad RMS
SciTegic.value.DoubleValue
0.000000

@<SCITEGIC>MOL_PROPERTY
U
SciTegic.value.DoubleValue
8.925

@<SCITEGIC>MOL_PROPERTY
W
SciTegic.value.DoubleValue
-61.378

@<SCITEGIC>MOL_PROPERTY
W(PB)
SciTegic.value.DoubleValue
-63.661

@<SCITEGIC>MOL_PROPERTY
W(SA)
SciTegic.value.DoubleValue
2.283

@<SCITEGIC>MOL_PROPERTY
Valence
SciTegic.value.DoubleValue
7.881

@<SCITEGIC>MOL_PROPERTY
Coulomb
SciTegic.value.DoubleValue
0.349

@<SCITEGIC>MOL_PROPERTY
VdW
SciTegic.value.DoubleValue
0.695

@<SCITEGIC>MOL_PROPERTY
VdW6
SciTegic.value.DoubleValue
-8.049

@<SCITEGIC>MOL_PROPERTY
VdW12
SciTegic.value.DoubleValue
8.743

@<SCITEGIC>MOL_PROPERTY
Bond
SciTegic.value.DoubleValue
0.156

@<SCITEGIC>MOL_PROPERTY
Angle
SciTegic.value.DoubleValue
2.660

@<SCITEGIC>MOL_PROPERTY
Pdih
SciTegic.value.DoubleValue
5.064

@<SCITEGIC>MOL_PROPERTY
Idih
SciTegic.value.DoubleValue
0.001

@<SCITEGIC>MOL_PROPERTY
Tether
SciTegic.value.DoubleValue
0.000

@<TRIPOS>MOLECULE
guest-s21_confgen4.mol2 : confsearch ligand conformer 678
          22          21           1
SMALL
USER_CHARGES
 
@<TRIPOS>ATOM
       1    C1      22.127726   16.524458   21.700703 C.2        1 MOL1         0.6145
       2    O1      21.646994   15.571411   21.119723 O.co2      1 MOL1        -0.6735
       3    O2      23.155650   17.073310   21.355584 O.co2      1 MOL1        -0.6735
       4    C2      21.415780   17.047554   22.945251 C.3        1 MOL1        -0.1985
       5    H1      22.177850   17.196005   23.719332 H          1 MOL1         0.0740
       6    H2      20.736203   16.269648   23.313886 H          1 MOL1         0.0740
       7    C3      20.641530   18.372762   22.721535 C.3        1 MOL1        -0.1882
       8    H3      20.302584   18.743658   23.696962 H          1 MOL1         0.0742
       9    H4      21.323393   19.128704   22.308144 H          1 MOL1         0.0742
      10    C4      19.420744   18.198564   21.788573 C.3        1 MOL1        -0.1880
      11    H5      18.704242   17.505984   22.250805 H          1 MOL1         0.0742
      12    H6      19.746412   17.723322   20.853198 H          1 MOL1         0.0742
      13    C5      18.699921   19.522357   21.430086 C.3        1 MOL1        -0.1880
      14    H7      19.383087   20.186953   20.883713 H          1 MOL1         0.0742
      15    H8      17.894030   19.278268   20.724518 H          1 MOL1         0.0742
      16    C6      18.074961   20.268330   22.635429 C.3        1 MOL1        -0.1856
      17    H9      17.814569   19.556608   23.430952 H          1 MOL1         0.0742
      18    H10     17.129096   20.725377   22.313333 H          1 MOL1         0.0742
      19    C7      18.980150   21.388981   23.193823 C.3        1 MOL1        -0.2871
      20    H11     19.940690   20.999238   23.549302 H          1 MOL1         0.0754
      21    H12     18.490557   21.893622   24.036708 H          1 MOL1         0.0754
      22    H13     19.185552   22.144232   22.424087 H          1 MOL1         0.0754
@<TRIPOS>BOND
    1     1     2    1
    2     1     3    2
    3     1     4    1
    4     4     5    1
    5     4     6    1
    6     4     7    1
    7     7     8    1
    8     7     9    1
    9     7    10    1
   10    10    11    1
   11    10    12    1
   12    10    13    1
   13    13    14    1
   14    13    15    1
   15    13    16    1
   16    16    17    1
   17    16    18    1
   18    16    19    1
   19    19    20    1
   20    19    21    1
   21    19    22    1
@<TRIPOS>SUBSTRUCTURE
       1 MOL1            1 RESIDUE      1      MOL     
@<SCITEGIC>MOL_PROPERTY
VConf Rank
SciTegic.value.IntegerValue
678

@<SCITEGIC>MOL_PROPERTY
Conf_Id
SciTegic.value.IntegerValue
82

@<SCITEGIC>MOL_PROPERTY
Delta U+W
SciTegic.value.DoubleValue
3.438

@<SCITEGIC>MOL_PROPERTY
U+W
SciTegic.value.DoubleValue
-49.721

@<SCITEGIC>MOL_PROPERTY
Grad RMS
SciTegic.value.DoubleValue
0.000000

@<SCITEGIC>MOL_PROPERTY
U
SciTegic.value.DoubleValue
11.773

@<SCITEGIC>MOL_PROPERTY
W
SciTegic.value.DoubleValue
-61.495

@<SCITEGIC>MOL_PROPERTY
W(PB)
SciTegic.value.DoubleValue
-63.749

@<SCITEGIC>MOL_PROPERTY
W(SA)
SciTegic.value.DoubleValue
2.254

@<SCITEGIC>MOL_PROPERTY
Valence
SciTegic.value.DoubleValue
10.419

@<SCITEGIC>MOL_PROPERTY
Coulomb
SciTegic.value.DoubleValue
0.565

@<SCITEGIC>MOL_PROPERTY
VdW
SciTegic.value.DoubleValue
0.789

@<SCITEGIC>MOL_PROPERTY
VdW6
SciTegic.value.DoubleValue
-8.847

@<SCITEGIC>MOL_PROPERTY
VdW12
SciTegic.value.DoubleValue
9.636

@<SCITEGIC>MOL_PROPERTY
Bond
SciTegic.value.DoubleValue
0.200

@<SCITEGIC>MOL_PROPERTY
Angle
SciTegic.value.DoubleValue
3.187

@<SCITEGIC>MOL_PROPERTY
Pdih
SciTegic.value.DoubleValue
7.032

@<SCITEGIC>MOL_PROPERTY
Idih
SciTegic.value.DoubleValue
0.001

@<SCITEGIC>MOL_PROPERTY
Tether
SciTegic.value.DoubleValue
0.000

@<TRIPOS>MOLECULE
guest-s21_confgen4.mol2 : confsearch ligand conformer 679
          22          21           1
SMALL
USER_CHARGES
 
@<TRIPOS>ATOM
       1    C1      20.521277   22.184954   22.452447 C.2        1 MOL1         0.6145
       2    O1      20.283300   22.639208   21.350633 O.co2      1 MOL1        -0.6735
       3    O2      20.149366   22.702299   23.487326 O.co2      1 MOL1        -0.6735
       4    C2      21.352314   20.907795   22.539857 C.3        1 MOL1        -0.1985
       5    H1      21.761608   20.824088   23.553922 H          1 MOL1         0.0740
       6    H2      22.205785   21.026438   21.861991 H          1 MOL1         0.0740
       7    C3      20.573112   19.619019   22.168924 C.3        1 MOL1        -0.1882
       8    H3      20.129362   19.735244   21.170497 H          1 MOL1         0.0742
       9    H4      21.287660   18.788501   22.109192 H          1 MOL1         0.0742
      10    C4      19.471648   19.272707   23.197479 C.3        1 MOL1        -0.1880
      11    H5      18.821698   20.147114   23.338258 H          1 MOL1         0.0742
      12    H6      19.933852   19.074143   24.174024 H          1 MOL1         0.0742
      13    C5      18.580640   18.070728   22.795137 C.3        1 MOL1        -0.1880
      14    H7      17.808366   17.959442   23.568490 H          1 MOL1         0.0742
      15    H8      18.040819   18.296881   21.865419 H          1 MOL1         0.0742
      16    C6      19.330459   16.721301   22.665851 C.3        1 MOL1        -0.1856
      17    H9      18.674452   15.918838   23.030551 H          1 MOL1         0.0742
      18    H10     20.214766   16.712472   23.317875 H          1 MOL1         0.0742
      19    C7      19.732533   16.384904   21.212510 C.3        1 MOL1        -0.2871
      20    H11     18.846336   16.319381   20.567958 H          1 MOL1         0.0754
      21    H12     20.249471   15.417482   21.171416 H          1 MOL1         0.0754
      22    H13     20.403144   17.140942   20.788729 H          1 MOL1         0.0754
@<TRIPOS>BOND
    1     1     2    1
    2     1     3    2
    3     1     4    1
    4     4     5    1
    5     4     6    1
    6     4     7    1
    7     7     8    1
    8     7     9    1
    9     7    10    1
   10    10    11    1
   11    10    12    1
   12    10    13    1
   13    13    14    1
   14    13    15    1
   15    13    16    1
   16    16    17    1
   17    16    18    1
   18    16    19    1
   19    19    20    1
   20    19    21    1
   21    19    22    1
@<TRIPOS>SUBSTRUCTURE
       1 MOL1            1 RESIDUE      1      MOL     
@<SCITEGIC>MOL_PROPERTY
VConf Rank
SciTegic.value.IntegerValue
679

@<SCITEGIC>MOL_PROPERTY
Conf_Id
SciTegic.value.IntegerValue
94

@<SCITEGIC>MOL_PROPERTY
Delta U+W
SciTegic.value.DoubleValue
3.471

@<SCITEGIC>MOL_PROPERTY
U+W
SciTegic.value.DoubleValue
-49.688

@<SCITEGIC>MOL_PROPERTY
Grad RMS
SciTegic.value.DoubleValue
0.000000

@<SCITEGIC>MOL_PROPERTY
U
SciTegic.value.DoubleValue
11.773

@<SCITEGIC>MOL_PROPERTY
W
SciTegic.value.DoubleValue
-61.461

@<SCITEGIC>MOL_PROPERTY
W(PB)
SciTegic.value.DoubleValue
-63.710

@<SCITEGIC>MOL_PROPERTY
W(SA)
SciTegic.value.DoubleValue
2.248

@<SCITEGIC>MOL_PROPERTY
Valence
SciTegic.value.DoubleValue
10.419

@<SCITEGIC>MOL_PROPERTY
Coulomb
SciTegic.value.DoubleValue
0.566

@<SCITEGIC>MOL_PROPERTY
VdW
SciTegic.value.DoubleValue
0.789

@<SCITEGIC>MOL_PROPERTY
VdW6
SciTegic.value.DoubleValue
-8.847

@<SCITEGIC>MOL_PROPERTY
VdW12
SciTegic.value.DoubleValue
9.636

@<SCITEGIC>MOL_PROPERTY
Bond
SciTegic.value.DoubleValue
0.200

@<SCITEGIC>MOL_PROPERTY
Angle
SciTegic.value.DoubleValue
3.187

@<SCITEGIC>MOL_PROPERTY
Pdih
SciTegic.value.DoubleValue
7.032

@<SCITEGIC>MOL_PROPERTY
Idih
SciTegic.value.DoubleValue
0.001

@<SCITEGIC>MOL_PROPERTY
Tether
SciTegic.value.DoubleValue
0.000

@<TRIPOS>MOLECULE
guest-s21_confgen4.mol2 : confsearch ligand conformer 680
          22          21           1
SMALL
USER_CHARGES
 
@<TRIPOS>ATOM
       1    C1      20.446416   20.664677   19.512912 C.2        1 MOL1         0.6145
       2    O1      21.289621   21.483082   19.203208 O.co2      1 MOL1        -0.6735
       3    O2      19.348147   20.602231   18.996695 O.co2      1 MOL1        -0.6735
       4    C2      20.778166   19.674452   20.623466 C.3        1 MOL1        -0.1985
       5    H1      21.852760   19.460878   20.580269 H          1 MOL1         0.0740
       6    H2      20.250883   18.738911   20.404902 H          1 MOL1         0.0740
       7    C3      20.393334   20.199829   22.030710 C.3        1 MOL1        -0.1882
       8    H3      20.871996   21.176501   22.185934 H          1 MOL1         0.0742
       9    H4      19.311247   20.382113   22.071765 H          1 MOL1         0.0742
      10    C4      20.817980   19.253235   23.181384 C.3        1 MOL1        -0.1880
      11    H5      20.557793   19.720785   24.140120 H          1 MOL1         0.0742
      12    H6      21.912838   19.164726   23.181611 H          1 MOL1         0.0742
      13    C5      20.206530   17.828448   23.124143 C.3        1 MOL1        -0.1880
      14    H7      20.597952   17.299872   22.245139 H          1 MOL1         0.0742
      15    H8      20.562067   17.260026   23.994220 H          1 MOL1         0.0742
      16    C6      18.659199   17.776124   23.093184 C.3        1 MOL1        -0.1856
      17    H9      18.345527   16.725369   23.026617 H          1 MOL1         0.0742
      18    H10     18.282399   18.263787   22.184224 H          1 MOL1         0.0742
      19    C7      18.002460   18.412873   24.336988 C.3        1 MOL1        -0.2871
      20    H11     18.377692   17.950674   25.259228 H          1 MOL1         0.0754
      21    H12     16.913647   18.277130   24.308628 H          1 MOL1         0.0754
      22    H13     18.202509   19.490643   24.385431 H          1 MOL1         0.0754
@<TRIPOS>BOND
    1     1     2    1
    2     1     3    2
    3     1     4    1
    4     4     5    1
    5     4     6    1
    6     4     7    1
    7     7     8    1
    8     7     9    1
    9     7    10    1
   10    10    11    1
   11    10    12    1
   12    10    13    1
   13    13    14    1
   14    13    15    1
   15    13    16    1
   16    16    17    1
   17    16    18    1
   18    16    19    1
   19    19    20    1
   20    19    21    1
   21    19    22    1
@<TRIPOS>SUBSTRUCTURE
       1 MOL1            1 RESIDUE      1      MOL     
@<SCITEGIC>MOL_PROPERTY
VConf Rank
SciTegic.value.IntegerValue
680

@<SCITEGIC>MOL_PROPERTY
Conf_Id
SciTegic.value.IntegerValue
56

@<SCITEGIC>MOL_PROPERTY
Delta U+W
SciTegic.value.DoubleValue
0.853

@<SCITEGIC>MOL_PROPERTY
U+W
SciTegic.value.DoubleValue
-52.307

@<SCITEGIC>MOL_PROPERTY
Grad RMS
SciTegic.value.DoubleValue
0.000000

@<SCITEGIC>MOL_PROPERTY
U
SciTegic.value.DoubleValue
8.874

@<SCITEGIC>MOL_PROPERTY
W
SciTegic.value.DoubleValue
-61.181

@<SCITEGIC>MOL_PROPERTY
W(PB)
SciTegic.value.DoubleValue
-63.413

@<SCITEGIC>MOL_PROPERTY
W(SA)
SciTegic.value.DoubleValue
2.232

@<SCITEGIC>MOL_PROPERTY
Valence
SciTegic.value.DoubleValue
8.479

@<SCITEGIC>MOL_PROPERTY
Coulomb
SciTegic.value.DoubleValue
-0.357

@<SCITEGIC>MOL_PROPERTY
VdW
SciTegic.value.DoubleValue
0.753

@<SCITEGIC>MOL_PROPERTY
VdW6
SciTegic.value.DoubleValue
-9.081

@<SCITEGIC>MOL_PROPERTY
VdW12
SciTegic.value.DoubleValue
9.833

@<SCITEGIC>MOL_PROPERTY
Bond
SciTegic.value.DoubleValue
0.221

@<SCITEGIC>MOL_PROPERTY
Angle
SciTegic.value.DoubleValue
3.208

@<SCITEGIC>MOL_PROPERTY
Pdih
SciTegic.value.DoubleValue
5.050

@<SCITEGIC>MOL_PROPERTY
Idih
SciTegic.value.DoubleValue
0.000

@<SCITEGIC>MOL_PROPERTY
Tether
SciTegic.value.DoubleValue
0.000

@<TRIPOS>MOLECULE
guest-s21_confgen4.mol2 : confsearch ligand conformer 681
          22          21           1
SMALL
USER_CHARGES
 
@<TRIPOS>ATOM
       1    C1      16.604498   16.711569   23.182815 C.2        1 MOL1         0.6145
       2    O1      17.248605   16.016416   23.944582 O.co2      1 MOL1        -0.6735
       3    O2      15.414513   16.559386   22.991248 O.co2      1 MOL1        -0.6735
       4    C2      17.296630   17.838747   22.414734 C.3        1 MOL1        -0.1985
       5    H1      16.776864   18.771353   22.663847 H          1 MOL1         0.0740
       6    H2      17.132406   17.655305   21.346396 H          1 MOL1         0.0740
       7    C3      18.815477   17.994567   22.692644 C.3        1 MOL1        -0.1882
       8    H3      18.973399   18.171872   23.765543 H          1 MOL1         0.0742
       9    H4      19.329298   17.054885   22.446728 H          1 MOL1         0.0742
      10    C4      19.432432   19.152526   21.878390 C.3        1 MOL1        -0.1880
      11    H5      18.917165   20.090803   22.125908 H          1 MOL1         0.0742
      12    H6      19.273190   18.973127   20.806201 H          1 MOL1         0.0742
      13    C5      20.943273   19.305704   22.156243 C.3        1 MOL1        -0.1880
      14    H7      21.103030   19.485069   23.228360 H          1 MOL1         0.0742
      15    H8      21.458986   18.367645   21.908831 H          1 MOL1         0.0742
      16    C6      21.560445   20.462731   21.342923 C.3        1 MOL1        -0.1856
      17    H9      21.048399   21.403247   21.589328 H          1 MOL1         0.0742
      18    H10     21.404299   20.285798   20.269709 H          1 MOL1         0.0742
      19    C7      23.069227   20.612324   21.623163 C.3        1 MOL1        -0.2871
      20    H11     23.252610   20.821513   22.685245 H          1 MOL1         0.0754
      21    H12     23.491484   21.438959   21.037104 H          1 MOL1         0.0754
      22    H13     23.611180   19.695729   21.355678 H          1 MOL1         0.0754
@<TRIPOS>BOND
    1     1     2    1
    2     1     3    2
    3     1     4    1
    4     4     5    1
    5     4     6    1
    6     4     7    1
    7     7     8    1
    8     7     9    1
    9     7    10    1
   10    10    11    1
   11    10    12    1
   12    10    13    1
   13    13    14    1
   14    13    15    1
   15    13    16    1
   16    16    17    1
   17    16    18    1
   18    16    19    1
   19    19    20    1
   20    19    21    1
   21    19    22    1
@<TRIPOS>SUBSTRUCTURE
       1 MOL1            1 RESIDUE      1      MOL     
@<SCITEGIC>MOL_PROPERTY
VConf Rank
SciTegic.value.IntegerValue
681

@<SCITEGIC>MOL_PROPERTY
Conf_Id
SciTegic.value.IntegerValue
0

@<SCITEGIC>MOL_PROPERTY
Delta U+W
SciTegic.value.DoubleValue
0.000

@<SCITEGIC>MOL_PROPERTY
U+W
SciTegic.value.DoubleValue
-53.159

@<SCITEGIC>MOL_PROPERTY
Grad RMS
SciTegic.value.DoubleValue
0.000000

@<SCITEGIC>MOL_PROPERTY
U
SciTegic.value.DoubleValue
6.763

@<SCITEGIC>MOL_PROPERTY
W
SciTegic.value.DoubleValue
-59.922

@<SCITEGIC>MOL_PROPERTY
W(PB)
SciTegic.value.DoubleValue
-62.256

@<SCITEGIC>MOL_PROPERTY
W(SA)
SciTegic.value.DoubleValue
2.334

@<SCITEGIC>MOL_PROPERTY
Valence
SciTegic.value.DoubleValue
7.600

@<SCITEGIC>MOL_PROPERTY
Coulomb
SciTegic.value.DoubleValue
-2.139

@<SCITEGIC>MOL_PROPERTY
VdW
SciTegic.value.DoubleValue
1.302

@<SCITEGIC>MOL_PROPERTY
VdW6
SciTegic.value.DoubleValue
-6.786

@<SCITEGIC>MOL_PROPERTY
VdW12
SciTegic.value.DoubleValue
8.088

@<SCITEGIC>MOL_PROPERTY
Bond
SciTegic.value.DoubleValue
0.134

@<SCITEGIC>MOL_PROPERTY
Angle
SciTegic.value.DoubleValue
2.720

@<SCITEGIC>MOL_PROPERTY
Pdih
SciTegic.value.DoubleValue
4.746

@<SCITEGIC>MOL_PROPERTY
Idih
SciTegic.value.DoubleValue
0.000

@<SCITEGIC>MOL_PROPERTY
Tether
SciTegic.value.DoubleValue
0.000

@<TRIPOS>MOLECULE
guest-s21_confgen4.mol2 : confsearch ligand conformer 682
          22          21           1
SMALL
USER_CHARGES
 
@<TRIPOS>ATOM
       1    C1      18.628235   22.318298   24.082675 C.2        1 MOL1         0.6145
       2    O1      17.423318   22.447980   24.170927 O.co2      1 MOL1        -0.6735
       3    O2      19.399707   23.251177   23.977793 O.co2      1 MOL1        -0.6735
       4    C2      19.202065   20.905879   24.080920 C.3        1 MOL1        -0.1985
       5    H1      18.562368   20.277422   24.712183 H          1 MOL1         0.0740
       6    H2      20.191178   20.939374   24.553354 H          1 MOL1         0.0740
       7    C3      19.308991   20.301630   22.659125 C.3        1 MOL1        -0.1882
       8    H3      18.312971   20.287220   22.195110 H          1 MOL1         0.0742
       9    H4      19.941732   20.949151   22.036287 H          1 MOL1         0.0742
      10    C4      19.892326   18.872308   22.684351 C.3        1 MOL1        -0.1880
      11    H5      19.258192   18.227962   23.308744 H          1 MOL1         0.0742
      12    H6      20.887364   18.890056   23.149922 H          1 MOL1         0.0742
      13    C5      19.997757   18.272585   21.265721 C.3        1 MOL1        -0.1880
      14    H7      19.002910   18.254674   20.799800 H          1 MOL1         0.0742
      15    H8      20.631811   18.916656   20.641000 H          1 MOL1         0.0742
      16    C6      20.580678   16.844062   21.290099 C.3        1 MOL1        -0.1856
      17    H9      19.947925   16.196230   21.912524 H          1 MOL1         0.0742
      18    H10     21.576828   16.858204   21.753740 H          1 MOL1         0.0742
      19    C7      20.684345   16.248713   19.871595 C.3        1 MOL1        -0.2871
      20    H11     21.337715   16.860373   19.235680 H          1 MOL1         0.0754
      21    H12     19.696520   16.193568   19.395603 H          1 MOL1         0.0754
      22    H13     21.100342   15.233457   19.907580 H          1 MOL1         0.0754
@<TRIPOS>BOND
    1     1     2    1
    2     1     3    2
    3     1     4    1
    4     4     5    1
    5     4     6    1
    6     4     7    1
    7     7     8    1
    8     7     9    1
    9     7    10    1
   10    10    11    1
   11    10    12    1
   12    10    13    1
   13    13    14    1
   14    13    15    1
   15    13    16    1
   16    16    17    1
   17    16    18    1
   18    16    19    1
   19    19    20    1
   20    19    21    1
   21    19    22    1
@<TRIPOS>SUBSTRUCTURE
       1 MOL1            1 RESIDUE      1      MOL     
@<SCITEGIC>MOL_PROPERTY
VConf Rank
SciTegic.value.IntegerValue
682

@<SCITEGIC>MOL_PROPERTY
Conf_Id
SciTegic.value.IntegerValue
10

@<SCITEGIC>MOL_PROPERTY
Delta U+W
SciTegic.value.DoubleValue
-1.291

@<SCITEGIC>MOL_PROPERTY
U+W
SciTegic.value.DoubleValue
-54.451

@<SCITEGIC>MOL_PROPERTY
Grad RMS
SciTegic.value.DoubleValue
0.000000

@<SCITEGIC>MOL_PROPERTY
U
SciTegic.value.DoubleValue
5.779

@<SCITEGIC>MOL_PROPERTY
W
SciTegic.value.DoubleValue
-60.230

@<SCITEGIC>MOL_PROPERTY
W(PB)
SciTegic.value.DoubleValue
-62.557

@<SCITEGIC>MOL_PROPERTY
W(SA)
SciTegic.value.DoubleValue
2.328

@<SCITEGIC>MOL_PROPERTY
Valence
SciTegic.value.DoubleValue
7.101

@<SCITEGIC>MOL_PROPERTY
Coulomb
SciTegic.value.DoubleValue
-2.079

@<SCITEGIC>MOL_PROPERTY
VdW
SciTegic.value.DoubleValue
0.757

@<SCITEGIC>MOL_PROPERTY
VdW6
SciTegic.value.DoubleValue
-6.496

@<SCITEGIC>MOL_PROPERTY
VdW12
SciTegic.value.DoubleValue
7.253

@<SCITEGIC>MOL_PROPERTY
Bond
SciTegic.value.DoubleValue
0.100

@<SCITEGIC>MOL_PROPERTY
Angle
SciTegic.value.DoubleValue
2.262

@<SCITEGIC>MOL_PROPERTY
Pdih
SciTegic.value.DoubleValue
4.738

@<SCITEGIC>MOL_PROPERTY
Idih
SciTegic.value.DoubleValue
0.001

@<SCITEGIC>MOL_PROPERTY
Tether
SciTegic.value.DoubleValue
0.000

@<TRIPOS>MOLECULE
guest-s21_confgen4.mol2 : confsearch ligand conformer 683
          22          21           1
SMALL
USER_CHARGES
 
@<TRIPOS>ATOM
       1    C1      20.387300   22.676622   21.262021 C.2        1 MOL1         0.6145
       2    O1      20.098038   22.909300   20.105024 O.co2      1 MOL1        -0.6735
       3    O2      20.335088   23.505857   22.148644 O.co2      1 MOL1        -0.6735
       4    C2      20.819490   21.260481   21.625290 C.3        1 MOL1        -0.1985
       5    H1      21.542528   21.325123   22.447290 H          1 MOL1         0.0740
       6    H2      21.345905   20.833210   20.763325 H          1 MOL1         0.0740
       7    C3      19.631036   20.353459   22.029070 C.3        1 MOL1        -0.1882
       8    H3      19.106902   20.802032   22.884394 H          1 MOL1         0.0742
       9    H4      18.910400   20.309147   21.200655 H          1 MOL1         0.0742
      10    C4      20.094670   18.925969   22.391920 C.3        1 MOL1        -0.1880
      11    H5      20.813239   18.973201   23.221549 H          1 MOL1         0.0742
      12    H6      20.622792   18.490242   21.533785 H          1 MOL1         0.0742
      13    C5      18.904327   18.023557   22.790663 C.3        1 MOL1        -0.1880
      14    H7      18.345210   18.507686   23.603030 H          1 MOL1         0.0742
      15    H8      18.208753   17.933075   21.945131 H          1 MOL1         0.0742
      16    C6      19.332063   16.614026   23.261377 C.3        1 MOL1        -0.1856
      17    H9      18.445603   16.083205   23.635079 H          1 MOL1         0.0742
      18    H10     20.023096   16.700370   24.111276 H          1 MOL1         0.0742
      19    C7      19.983824   15.768543   22.145772 C.3        1 MOL1        -0.2871
      20    H11     20.187019   14.751189   22.504415 H          1 MOL1         0.0754
      21    H12     20.937482   16.202028   21.819687 H          1 MOL1         0.0754
      22    H13     19.322656   15.693324   21.272655 H          1 MOL1         0.0754
@<TRIPOS>BOND
    1     1     2    1
    2     1     3    2
    3     1     4    1
    4     4     5    1
    5     4     6    1
    6     4     7    1
    7     7     8    1
    8     7     9    1
    9     7    10    1
   10    10    11    1
   11    10    12    1
   12    10    13    1
   13    13    14    1
   14    13    15    1
   15    13    16    1
   16    16    17    1
   17    16    18    1
   18    16    19    1
   19    19    20    1
   20    19    21    1
   21    19    22    1
@<TRIPOS>SUBSTRUCTURE
       1 MOL1            1 RESIDUE      1      MOL     
@<SCITEGIC>MOL_PROPERTY
VConf Rank
SciTegic.value.IntegerValue
683

@<SCITEGIC>MOL_PROPERTY
Conf_Id
SciTegic.value.IntegerValue
37

@<SCITEGIC>MOL_PROPERTY
Delta U+W
SciTegic.value.DoubleValue
-0.345

@<SCITEGIC>MOL_PROPERTY
U+W
SciTegic.value.DoubleValue
-53.504

@<SCITEGIC>MOL_PROPERTY
Grad RMS
SciTegic.value.DoubleValue
0.000000

@<SCITEGIC>MOL_PROPERTY
U
SciTegic.value.DoubleValue
6.751

@<SCITEGIC>MOL_PROPERTY
W
SciTegic.value.DoubleValue
-60.255

@<SCITEGIC>MOL_PROPERTY
W(PB)
SciTegic.value.DoubleValue
-62.592

@<SCITEGIC>MOL_PROPERTY
W(SA)
SciTegic.value.DoubleValue
2.336

@<SCITEGIC>MOL_PROPERTY
Valence
SciTegic.value.DoubleValue
7.602

@<SCITEGIC>MOL_PROPERTY
Coulomb
SciTegic.value.DoubleValue
-1.744

@<SCITEGIC>MOL_PROPERTY
VdW
SciTegic.value.DoubleValue
0.894

@<SCITEGIC>MOL_PROPERTY
VdW6
SciTegic.value.DoubleValue
-7.110

@<SCITEGIC>MOL_PROPERTY
VdW12
SciTegic.value.DoubleValue
8.004

@<SCITEGIC>MOL_PROPERTY
Bond
SciTegic.value.DoubleValue
0.131

@<SCITEGIC>MOL_PROPERTY
Angle
SciTegic.value.DoubleValue
2.489

@<SCITEGIC>MOL_PROPERTY
Pdih
SciTegic.value.DoubleValue
4.982

@<SCITEGIC>MOL_PROPERTY
Idih
SciTegic.value.DoubleValue
0.001

@<SCITEGIC>MOL_PROPERTY
Tether
SciTegic.value.DoubleValue
0.000

@<TRIPOS>MOLECULE
guest-s21_confgen4.mol2 : confsearch ligand conformer 684
          22          21           1
SMALL
USER_CHARGES
 
@<TRIPOS>ATOM
       1    C1      22.529550   16.350409   23.012857 C.2        1 MOL1         0.6145
       2    O1      23.631304   16.841919   23.157791 O.co2      1 MOL1        -0.6735
       3    O2      22.345757   15.207800   22.642559 O.co2      1 MOL1        -0.6735
       4    C2      21.310078   17.222311   23.290144 C.3        1 MOL1        -0.1985
       5    H1      21.568063   17.923642   24.092787 H          1 MOL1         0.0740
       6    H2      20.508573   16.576728   23.668902 H          1 MOL1         0.0740
       7    C3      20.826584   17.996304   22.039015 C.3        1 MOL1        -0.1882
       8    H3      21.643950   18.628334   21.664849 H          1 MOL1         0.0742
       9    H4      20.585447   17.280661   21.240755 H          1 MOL1         0.0742
      10    C4      19.591560   18.870929   22.345771 C.3        1 MOL1        -0.1880
      11    H5      19.841036   19.576666   23.148806 H          1 MOL1         0.0742
      12    H6      18.775517   18.236270   22.717438 H          1 MOL1         0.0742
      13    C5      19.115245   19.644395   21.094717 C.3        1 MOL1        -0.1880
      14    H7      19.911766   20.318157   20.750427 H          1 MOL1         0.0742
      15    H8      18.937716   18.930182   20.279045 H          1 MOL1         0.0742
      16    C6      17.818694   20.453932   21.329057 C.3        1 MOL1        -0.1856
      17    H9      17.017736   19.782153   21.667419 H          1 MOL1         0.0742
      18    H10     17.486874   20.873455   20.369301 H          1 MOL1         0.0742
      19    C7      17.992264   21.606635   22.341658 C.3        1 MOL1        -0.2871
      20    H11     18.808683   22.275454   22.039541 H          1 MOL1         0.0754
      21    H12     18.211896   21.226989   23.347310 H          1 MOL1         0.0754
      22    H13     17.072932   22.203023   22.405453 H          1 MOL1         0.0754
@<TRIPOS>BOND
    1     1     2    1
    2     1     3    2
    3     1     4    1
    4     4     5    1
    5     4     6    1
    6     4     7    1
    7     7     8    1
    8     7     9    1
    9     7    10    1
   10    10    11    1
   11    10    12    1
   12    10    13    1
   13    13    14    1
   14    13    15    1
   15    13    16    1
   16    16    17    1
   17    16    18    1
   18    16    19    1
   19    19    20    1
   20    19    21    1
   21    19    22    1
@<TRIPOS>SUBSTRUCTURE
       1 MOL1            1 RESIDUE      1      MOL     
@<SCITEGIC>MOL_PROPERTY
VConf Rank
SciTegic.value.IntegerValue
684

@<SCITEGIC>MOL_PROPERTY
Conf_Id
SciTegic.value.IntegerValue
38

@<SCITEGIC>MOL_PROPERTY
Delta U+W
SciTegic.value.DoubleValue
-0.439

@<SCITEGIC>MOL_PROPERTY
U+W
SciTegic.value.DoubleValue
-53.598

@<SCITEGIC>MOL_PROPERTY
Grad RMS
SciTegic.value.DoubleValue
0.000000

@<SCITEGIC>MOL_PROPERTY
U
SciTegic.value.DoubleValue
6.751

@<SCITEGIC>MOL_PROPERTY
W
SciTegic.value.DoubleValue
-60.350

@<SCITEGIC>MOL_PROPERTY
W(PB)
SciTegic.value.DoubleValue
-62.659

@<SCITEGIC>MOL_PROPERTY
W(SA)
SciTegic.value.DoubleValue
2.309

@<SCITEGIC>MOL_PROPERTY
Valence
SciTegic.value.DoubleValue
7.602

@<SCITEGIC>MOL_PROPERTY
Coulomb
SciTegic.value.DoubleValue
-1.744

@<SCITEGIC>MOL_PROPERTY
VdW
SciTegic.value.DoubleValue
0.893

@<SCITEGIC>MOL_PROPERTY
VdW6
SciTegic.value.DoubleValue
-7.110

@<SCITEGIC>MOL_PROPERTY
VdW12
SciTegic.value.DoubleValue
8.004

@<SCITEGIC>MOL_PROPERTY
Bond
SciTegic.value.DoubleValue
0.131

@<SCITEGIC>MOL_PROPERTY
Angle
SciTegic.value.DoubleValue
2.489

@<SCITEGIC>MOL_PROPERTY
Pdih
SciTegic.value.DoubleValue
4.981

@<SCITEGIC>MOL_PROPERTY
Idih
SciTegic.value.DoubleValue
0.001

@<SCITEGIC>MOL_PROPERTY
Tether
SciTegic.value.DoubleValue
0.000

@<TRIPOS>MOLECULE
guest-s21_confgen4.mol2 : confsearch ligand conformer 685
          22          21           1
SMALL
USER_CHARGES
 
@<TRIPOS>ATOM
       1    C1      19.110137   18.132560   18.642234 C.2        1 MOL1         0.6145
       2    O1      19.960811   18.022795   17.781498 O.co2      1 MOL1        -0.6735
       3    O2      17.934914   18.330502   18.405165 O.co2      1 MOL1        -0.6735
       4    C2      19.545125   18.039334   20.100447 C.3        1 MOL1        -0.1985
       5    H1      20.397191   17.351497   20.157721 H          1 MOL1         0.0740
       6    H2      18.722296   17.586206   20.664440 H          1 MOL1         0.0740
       7    C3      19.928382   19.417052   20.700959 C.3        1 MOL1        -0.1882
       8    H3      20.685055   19.883227   20.054758 H          1 MOL1         0.0742
       9    H4      19.053842   20.082001   20.683159 H          1 MOL1         0.0742
      10    C4      20.492006   19.332301   22.139662 C.3        1 MOL1        -0.1880
      11    H5      20.862583   20.327038   22.418047 H          1 MOL1         0.0742
      12    H6      21.360843   18.660334   22.155489 H          1 MOL1         0.0742
      13    C5      19.448375   18.862066   23.182608 C.3        1 MOL1        -0.1880
      14    H7      18.578817   19.533092   23.165402 H          1 MOL1         0.0742
      15    H8      19.079173   17.866134   22.907131 H          1 MOL1         0.0742
      16    C6      20.010961   18.781745   24.621066 C.3        1 MOL1        -0.1856
      17    H9      20.888134   18.120315   24.640317 H          1 MOL1         0.0742
      18    H10     19.255936   18.313941   25.267859 H          1 MOL1         0.0742
      19    C7      20.384122   20.158526   25.212570 C.3        1 MOL1        -0.2871
      20    H11     21.222269   20.614613   24.671350 H          1 MOL1         0.0754
      21    H12     20.685092   20.055484   26.263150 H          1 MOL1         0.0754
      22    H13     19.530897   20.848071   25.171842 H          1 MOL1         0.0754
@<TRIPOS>BOND
    1     1     2    1
    2     1     3    2
    3     1     4    1
    4     4     5    1
    5     4     6    1
    6     4     7    1
    7     7     8    1
    8     7     9    1
    9     7    10    1
   10    10    11    1
   11    10    12    1
   12    10    13    1
   13    13    14    1
   14    13    15    1
   15    13    16    1
   16    16    17    1
   17    16    18    1
   18    16    19    1
   19    19    20    1
   20    19    21    1
   21    19    22    1
@<TRIPOS>SUBSTRUCTURE
       1 MOL1            1 RESIDUE      1      MOL     
@<SCITEGIC>MOL_PROPERTY
VConf Rank
SciTegic.value.IntegerValue
685

@<SCITEGIC>MOL_PROPERTY
Conf_Id
SciTegic.value.IntegerValue
60

@<SCITEGIC>MOL_PROPERTY
Delta U+W
SciTegic.value.DoubleValue
0.386

@<SCITEGIC>MOL_PROPERTY
U+W
SciTegic.value.DoubleValue
-52.773

@<SCITEGIC>MOL_PROPERTY
Grad RMS
SciTegic.value.DoubleValue
0.000000

@<SCITEGIC>MOL_PROPERTY
U
SciTegic.value.DoubleValue
7.689

@<SCITEGIC>MOL_PROPERTY
W
SciTegic.value.DoubleValue
-60.463

@<SCITEGIC>MOL_PROPERTY
W(PB)
SciTegic.value.DoubleValue
-62.772

@<SCITEGIC>MOL_PROPERTY
W(SA)
SciTegic.value.DoubleValue
2.309

@<SCITEGIC>MOL_PROPERTY
Valence
SciTegic.value.DoubleValue
8.197

@<SCITEGIC>MOL_PROPERTY
Coulomb
SciTegic.value.DoubleValue
-1.561

@<SCITEGIC>MOL_PROPERTY
VdW
SciTegic.value.DoubleValue
1.053

@<SCITEGIC>MOL_PROPERTY
VdW6
SciTegic.value.DoubleValue
-7.737

@<SCITEGIC>MOL_PROPERTY
VdW12
SciTegic.value.DoubleValue
8.790

@<SCITEGIC>MOL_PROPERTY
Bond
SciTegic.value.DoubleValue
0.181

@<SCITEGIC>MOL_PROPERTY
Angle
SciTegic.value.DoubleValue
2.780

@<SCITEGIC>MOL_PROPERTY
Pdih
SciTegic.value.DoubleValue
5.235

@<SCITEGIC>MOL_PROPERTY
Idih
SciTegic.value.DoubleValue
0.001

@<SCITEGIC>MOL_PROPERTY
Tether
SciTegic.value.DoubleValue
0.000

@<TRIPOS>MOLECULE
guest-s21_confgen4.mol2 : confsearch ligand conformer 686
          22          21           1
SMALL
USER_CHARGES
 
@<TRIPOS>ATOM
       1    C1      16.495750   20.285810   23.298891 C.2        1 MOL1         0.6145
       2    O1      15.629207   19.892571   22.543246 O.co2      1 MOL1        -0.6735
       3    O2      16.359053   21.237296   24.042227 O.co2      1 MOL1        -0.6735
       4    C2      17.836183   19.559499   23.298131 C.3        1 MOL1        -0.1985
       5    H1      17.641116   18.502014   23.088039 H          1 MOL1         0.0740
       6    H2      18.255593   19.618904   24.309556 H          1 MOL1         0.0740
       7    C3      18.836208   20.147807   22.268831 C.3        1 MOL1        -0.1882
       8    H3      18.427123   20.038551   21.254924 H          1 MOL1         0.0742
       9    H4      18.931388   21.227474   22.449678 H          1 MOL1         0.0742
      10    C4      20.244384   19.509690   22.336423 C.3        1 MOL1        -0.1880
      11    H5      20.646931   19.613381   23.353217 H          1 MOL1         0.0742
      12    H6      20.908988   20.083781   21.678359 H          1 MOL1         0.0742
      13    C5      20.265548   18.019667   21.915236 C.3        1 MOL1        -0.1880
      14    H7      19.603790   17.443853   22.574473 H          1 MOL1         0.0742
      15    H8      19.861211   17.915901   20.899142 H          1 MOL1         0.0742
      16    C6      21.673921   17.383598   21.978611 C.3        1 MOL1        -0.1856
      17    H9      21.579849   16.303539   21.800097 H          1 MOL1         0.0742
      18    H10     22.086717   17.495545   22.990718 H          1 MOL1         0.0742
      19    C7      22.660469   17.971285   20.946139 C.3        1 MOL1        -0.2871
      20    H11     22.252942   17.901428   19.929199 H          1 MOL1         0.0754
      21    H12     23.610386   17.421638   20.967689 H          1 MOL1         0.0754
      22    H13     22.882696   19.024649   21.157010 H          1 MOL1         0.0754
@<TRIPOS>BOND
    1     1     2    1
    2     1     3    2
    3     1     4    1
    4     4     5    1
    5     4     6    1
    6     4     7    1
    7     7     8    1
    8     7     9    1
    9     7    10    1
   10    10    11    1
   11    10    12    1
   12    10    13    1
   13    13    14    1
   14    13    15    1
   15    13    16    1
   16    16    17    1
   17    16    18    1
   18    16    19    1
   19    19    20    1
   20    19    21    1
   21    19    22    1
@<TRIPOS>SUBSTRUCTURE
       1 MOL1            1 RESIDUE      1      MOL     
@<SCITEGIC>MOL_PROPERTY
VConf Rank
SciTegic.value.IntegerValue
686

@<SCITEGIC>MOL_PROPERTY
Conf_Id
SciTegic.value.IntegerValue
28

@<SCITEGIC>MOL_PROPERTY
Delta U+W
SciTegic.value.DoubleValue
0.351

@<SCITEGIC>MOL_PROPERTY
U+W
SciTegic.value.DoubleValue
-52.808

@<SCITEGIC>MOL_PROPERTY
Grad RMS
SciTegic.value.DoubleValue
0.000000

@<SCITEGIC>MOL_PROPERTY
U
SciTegic.value.DoubleValue
7.689

@<SCITEGIC>MOL_PROPERTY
W
SciTegic.value.DoubleValue
-60.498

@<SCITEGIC>MOL_PROPERTY
W(PB)
SciTegic.value.DoubleValue
-62.768

@<SCITEGIC>MOL_PROPERTY
W(SA)
SciTegic.value.DoubleValue
2.270

@<SCITEGIC>MOL_PROPERTY
Valence
SciTegic.value.DoubleValue
8.197

@<SCITEGIC>MOL_PROPERTY
Coulomb
SciTegic.value.DoubleValue
-1.561

@<SCITEGIC>MOL_PROPERTY
VdW
SciTegic.value.DoubleValue
1.053

@<SCITEGIC>MOL_PROPERTY
VdW6
SciTegic.value.DoubleValue
-7.737

@<SCITEGIC>MOL_PROPERTY
VdW12
SciTegic.value.DoubleValue
8.791

@<SCITEGIC>MOL_PROPERTY
Bond
SciTegic.value.DoubleValue
0.181

@<SCITEGIC>MOL_PROPERTY
Angle
SciTegic.value.DoubleValue
2.780

@<SCITEGIC>MOL_PROPERTY
Pdih
SciTegic.value.DoubleValue
5.235

@<SCITEGIC>MOL_PROPERTY
Idih
SciTegic.value.DoubleValue
0.001

@<SCITEGIC>MOL_PROPERTY
Tether
SciTegic.value.DoubleValue
0.000

@<TRIPOS>MOLECULE
guest-s21_confgen4.mol2 : confsearch ligand conformer 687
          22          21           1
SMALL
USER_CHARGES
 
@<TRIPOS>ATOM
       1    C1      18.035967   22.043587   22.974664 C.2        1 MOL1         0.6145
       2    O1      17.788272   22.285358   24.139423 O.co2      1 MOL1        -0.6735
       3    O2      18.412486   22.881011   22.178793 O.co2      1 MOL1        -0.6735
       4    C2      17.885067   20.606030   22.489918 C.3        1 MOL1        -0.1985
       5    H1      17.582096   20.631698   21.436257 H          1 MOL1         0.0740
       6    H2      17.065848   20.141479   23.051781 H          1 MOL1         0.0740
       7    C3      19.183059   19.777074   22.652195 C.3        1 MOL1        -0.1882
       8    H3      19.991498   20.272286   22.098426 H          1 MOL1         0.0742
       9    H4      19.477888   19.768456   23.710640 H          1 MOL1         0.0742
      10    C4      19.003257   18.326082   22.148854 C.3        1 MOL1        -0.1880
      11    H5      18.760098   18.332682   21.077491 H          1 MOL1         0.0742
      12    H6      18.141880   17.875090   22.660321 H          1 MOL1         0.0742
      13    C5      20.241352   17.431114   22.393222 C.3        1 MOL1        -0.1880
      14    H7      20.482410   17.420986   23.465006 H          1 MOL1         0.0742
      15    H8      19.982611   16.398049   22.123484 H          1 MOL1         0.0742
      16    C6      21.484548   17.864075   21.583718 C.3        1 MOL1        -0.1856
      17    H9      21.808240   18.866186   21.894132 H          1 MOL1         0.0742
      18    H10     21.229292   17.925333   20.516808 H          1 MOL1         0.0742
      19    C7      22.654719   16.878139   21.774361 C.3        1 MOL1        -0.2871
      20    H11     22.378902   15.870385   21.437146 H          1 MOL1         0.0754
      21    H12     22.949031   16.817968   22.830365 H          1 MOL1         0.0754
      22    H13     23.530374   17.200822   21.196284 H          1 MOL1         0.0754
@<TRIPOS>BOND
    1     1     2    1
    2     1     3    2
    3     1     4    1
    4     4     5    1
    5     4     6    1
    6     4     7    1
    7     7     8    1
    8     7     9    1
    9     7    10    1
   10    10    11    1
   11    10    12    1
   12    10    13    1
   13    13    14    1
   14    13    15    1
   15    13    16    1
   16    16    17    1
   17    16    18    1
   18    16    19    1
   19    19    20    1
   20    19    21    1
   21    19    22    1
@<TRIPOS>SUBSTRUCTURE
       1 MOL1            1 RESIDUE      1      MOL     
@<SCITEGIC>MOL_PROPERTY
VConf Rank
SciTegic.value.IntegerValue
687

@<SCITEGIC>MOL_PROPERTY
Conf_Id
SciTegic.value.IntegerValue
50

@<SCITEGIC>MOL_PROPERTY
Delta U+W
SciTegic.value.DoubleValue
-0.486

@<SCITEGIC>MOL_PROPERTY
U+W
SciTegic.value.DoubleValue
-53.646

@<SCITEGIC>MOL_PROPERTY
Grad RMS
SciTegic.value.DoubleValue
0.000000

@<SCITEGIC>MOL_PROPERTY
U
SciTegic.value.DoubleValue
7.026

@<SCITEGIC>MOL_PROPERTY
W
SciTegic.value.DoubleValue
-60.672

@<SCITEGIC>MOL_PROPERTY
W(PB)
SciTegic.value.DoubleValue
-62.964

@<SCITEGIC>MOL_PROPERTY
W(SA)
SciTegic.value.DoubleValue
2.292

@<SCITEGIC>MOL_PROPERTY
Valence
SciTegic.value.DoubleValue
7.637

@<SCITEGIC>MOL_PROPERTY
Coulomb
SciTegic.value.DoubleValue
-1.488

@<SCITEGIC>MOL_PROPERTY
VdW
SciTegic.value.DoubleValue
0.877

@<SCITEGIC>MOL_PROPERTY
VdW6
SciTegic.value.DoubleValue
-7.165

@<SCITEGIC>MOL_PROPERTY
VdW12
SciTegic.value.DoubleValue
8.043

@<SCITEGIC>MOL_PROPERTY
Bond
SciTegic.value.DoubleValue
0.134

@<SCITEGIC>MOL_PROPERTY
Angle
SciTegic.value.DoubleValue
2.513

@<SCITEGIC>MOL_PROPERTY
Pdih
SciTegic.value.DoubleValue
4.990

@<SCITEGIC>MOL_PROPERTY
Idih
SciTegic.value.DoubleValue
0.001

@<SCITEGIC>MOL_PROPERTY
Tether
SciTegic.value.DoubleValue
0.000

@<TRIPOS>MOLECULE
guest-s21_confgen4.mol2 : confsearch ligand conformer 688
          22          21           1
SMALL
USER_CHARGES
 
@<TRIPOS>ATOM
       1    C1      19.235746   18.448899   18.602088 C.2        1 MOL1         0.6145
       2    O1      20.177634   17.997853   17.980900 O.co2      1 MOL1        -0.6735
       3    O2      18.521307   19.340305   18.188051 O.co2      1 MOL1        -0.6735
       4    C2      18.946858   17.878819   19.986242 C.3        1 MOL1        -0.1985
       5    H1      19.228352   16.818928   19.983459 H          1 MOL1         0.0740
       6    H2      17.864367   17.926509   20.155324 H          1 MOL1         0.0740
       7    C3      19.697023   18.628985   21.114427 C.3        1 MOL1        -0.1882
       8    H3      20.778381   18.579817   20.925877 H          1 MOL1         0.0742
       9    H4      19.414350   19.689470   21.083849 H          1 MOL1         0.0742
      10    C4      19.382533   18.033476   22.506380 C.3        1 MOL1        -0.1880
      11    H5      19.600443   16.956790   22.491409 H          1 MOL1         0.0742
      12    H6      18.308677   18.130373   22.717166 H          1 MOL1         0.0742
      13    C5      20.195543   18.681632   23.652011 C.3        1 MOL1        -0.1880
      14    H7      20.004795   18.118515   24.575831 H          1 MOL1         0.0742
      15    H8      21.269530   18.581456   23.443570 H          1 MOL1         0.0742
      16    C6      19.847597   20.168366   23.890434 C.3        1 MOL1        -0.1856
      17    H9      18.765300   20.275333   24.046632 H          1 MOL1         0.0742
      18    H10     20.104238   20.763973   23.004574 H          1 MOL1         0.0742
      19    C7      20.599584   20.736177   25.111017 C.3        1 MOL1        -0.2871
      20    H11     21.686124   20.666761   24.969603 H          1 MOL1         0.0754
      21    H12     20.336855   20.187588   26.025009 H          1 MOL1         0.0754
      22    H13     20.344631   21.792734   25.265140 H          1 MOL1         0.0754
@<TRIPOS>BOND
    1     1     2    1
    2     1     3    2
    3     1     4    1
    4     4     5    1
    5     4     6    1
    6     4     7    1
    7     7     8    1
    8     7     9    1
    9     7    10    1
   10    10    11    1
   11    10    12    1
   12    10    13    1
   13    13    14    1
   14    13    15    1
   15    13    16    1
   16    16    17    1
   17    16    18    1
   18    16    19    1
   19    19    20    1
   20    19    21    1
   21    19    22    1
@<TRIPOS>SUBSTRUCTURE
       1 MOL1            1 RESIDUE      1      MOL     
@<SCITEGIC>MOL_PROPERTY
VConf Rank
SciTegic.value.IntegerValue
688

@<SCITEGIC>MOL_PROPERTY
Conf_Id
SciTegic.value.IntegerValue
51

@<SCITEGIC>MOL_PROPERTY
Delta U+W
SciTegic.value.DoubleValue
-0.517

@<SCITEGIC>MOL_PROPERTY
U+W
SciTegic.value.DoubleValue
-53.677

@<SCITEGIC>MOL_PROPERTY
Grad RMS
SciTegic.value.DoubleValue
0.000000

@<SCITEGIC>MOL_PROPERTY
U
SciTegic.value.DoubleValue
7.026

@<SCITEGIC>MOL_PROPERTY
W
SciTegic.value.DoubleValue
-60.703

@<SCITEGIC>MOL_PROPERTY
W(PB)
SciTegic.value.DoubleValue
-63.007

@<SCITEGIC>MOL_PROPERTY
W(SA)
SciTegic.value.DoubleValue
2.304

@<SCITEGIC>MOL_PROPERTY
Valence
SciTegic.value.DoubleValue
7.638

@<SCITEGIC>MOL_PROPERTY
Coulomb
SciTegic.value.DoubleValue
-1.488

@<SCITEGIC>MOL_PROPERTY
VdW
SciTegic.value.DoubleValue
0.877

@<SCITEGIC>MOL_PROPERTY
VdW6
SciTegic.value.DoubleValue
-7.165

@<SCITEGIC>MOL_PROPERTY
VdW12
SciTegic.value.DoubleValue
8.042

@<SCITEGIC>MOL_PROPERTY
Bond
SciTegic.value.DoubleValue
0.134

@<SCITEGIC>MOL_PROPERTY
Angle
SciTegic.value.DoubleValue
2.513

@<SCITEGIC>MOL_PROPERTY
Pdih
SciTegic.value.DoubleValue
4.990

@<SCITEGIC>MOL_PROPERTY
Idih
SciTegic.value.DoubleValue
0.001

@<SCITEGIC>MOL_PROPERTY
Tether
SciTegic.value.DoubleValue
0.000

@<TRIPOS>MOLECULE
guest-s21_confgen4.mol2 : confsearch ligand conformer 689
          22          21           1
SMALL
USER_CHARGES
 
@<TRIPOS>ATOM
       1    C1      21.126763   21.188837   20.046946 C.2        1 MOL1         0.6145
       2    O1      22.187152   20.875356   19.542758 O.co2      1 MOL1        -0.6735
       3    O2      20.099427   21.336782   19.414898 O.co2      1 MOL1        -0.6735
       4    C2      21.089916   21.427720   21.553834 C.3        1 MOL1        -0.1985
       5    H1      20.197103   22.018091   21.793109 H          1 MOL1         0.0740
       6    H2      21.957771   22.047223   21.808951 H          1 MOL1         0.0740
       7    C3      21.114890   20.127914   22.399335 C.3        1 MOL1        -0.1882
       8    H3      21.999230   19.534458   22.128400 H          1 MOL1         0.0742
       9    H4      21.225479   20.394256   23.459228 H          1 MOL1         0.0742
      10    C4      19.837971   19.276808   22.218545 C.3        1 MOL1        -0.1880
      11    H5      19.729517   18.991820   21.162881 H          1 MOL1         0.0742
      12    H6      18.956142   19.878539   22.477989 H          1 MOL1         0.0742
      13    C5      19.870376   18.004576   23.092518 C.3        1 MOL1        -0.1880
      14    H7      20.752443   17.403380   22.832462 H          1 MOL1         0.0742
      15    H8      19.975895   18.287043   24.148991 H          1 MOL1         0.0742
      16    C6      18.595838   17.153705   22.911917 C.3        1 MOL1        -0.1856
      17    H9      18.487918   16.867729   21.856421 H          1 MOL1         0.0742
      18    H10     17.711390   17.751342   23.172772 H          1 MOL1         0.0742
      19    C7      18.632066   15.883835   23.785685 C.3        1 MOL1        -0.2871
      20    H11     19.490414   15.251305   23.523875 H          1 MOL1         0.0754
      21    H12     17.718848   15.291144   23.644838 H          1 MOL1         0.0754
      22    H13     18.708082   16.141565   24.850200 H          1 MOL1         0.0754
@<TRIPOS>BOND
    1     1     2    1
    2     1     3    2
    3     1     4    1
    4     4     5    1
    5     4     6    1
    6     4     7    1
    7     7     8    1
    8     7     9    1
    9     7    10    1
   10    10    11    1
   11    10    12    1
   12    10    13    1
   13    13    14    1
   14    13    15    1
   15    13    16    1
   16    16    17    1
   17    16    18    1
   18    16    19    1
   19    19    20    1
   20    19    21    1
   21    19    22    1
@<TRIPOS>SUBSTRUCTURE
       1 MOL1            1 RESIDUE      1      MOL     
@<SCITEGIC>MOL_PROPERTY
VConf Rank
SciTegic.value.IntegerValue
689

@<SCITEGIC>MOL_PROPERTY
Conf_Id
SciTegic.value.IntegerValue
43

@<SCITEGIC>MOL_PROPERTY
Delta U+W
SciTegic.value.DoubleValue
-0.129

@<SCITEGIC>MOL_PROPERTY
U+W
SciTegic.value.DoubleValue
-53.289

@<SCITEGIC>MOL_PROPERTY
Grad RMS
SciTegic.value.DoubleValue
0.000000

@<SCITEGIC>MOL_PROPERTY
U
SciTegic.value.DoubleValue
7.937

@<SCITEGIC>MOL_PROPERTY
W
SciTegic.value.DoubleValue
-61.225

@<SCITEGIC>MOL_PROPERTY
W(PB)
SciTegic.value.DoubleValue
-63.523

@<SCITEGIC>MOL_PROPERTY
W(SA)
SciTegic.value.DoubleValue
2.297

@<SCITEGIC>MOL_PROPERTY
Valence
SciTegic.value.DoubleValue
7.358

@<SCITEGIC>MOL_PROPERTY
Coulomb
SciTegic.value.DoubleValue
-0.022

@<SCITEGIC>MOL_PROPERTY
VdW
SciTegic.value.DoubleValue
0.601

@<SCITEGIC>MOL_PROPERTY
VdW6
SciTegic.value.DoubleValue
-7.363

@<SCITEGIC>MOL_PROPERTY
VdW12
SciTegic.value.DoubleValue
7.964

@<SCITEGIC>MOL_PROPERTY
Bond
SciTegic.value.DoubleValue
0.121

@<SCITEGIC>MOL_PROPERTY
Angle
SciTegic.value.DoubleValue
2.425

@<SCITEGIC>MOL_PROPERTY
Pdih
SciTegic.value.DoubleValue
4.811

@<SCITEGIC>MOL_PROPERTY
Idih
SciTegic.value.DoubleValue
0.000

@<SCITEGIC>MOL_PROPERTY
Tether
SciTegic.value.DoubleValue
0.000

@<TRIPOS>MOLECULE
guest-s21_confgen4.mol2 : confsearch ligand conformer 690
          22          21           1
SMALL
USER_CHARGES
 
@<TRIPOS>ATOM
       1    C1      18.706328   20.617838   25.291893 C.2        1 MOL1         0.6145
       2    O1      18.617719   19.848086   26.228127 O.co2      1 MOL1        -0.6735
       3    O2      17.768183   21.253460   24.852962 O.co2      1 MOL1        -0.6735
       4    C2      20.075489   20.808914   24.645350 C.3        1 MOL1        -0.1985
       5    H1      20.805593   20.932288   25.453910 H          1 MOL1         0.0740
       6    H2      20.067331   21.748086   24.078965 H          1 MOL1         0.0740
       7    C3      20.510057   19.635109   23.729746 C.3        1 MOL1        -0.1882
       8    H3      21.552828   19.790683   23.421580 H          1 MOL1         0.0742
       9    H4      20.486191   18.698047   24.303329 H          1 MOL1         0.0742
      10    C4      19.621801   19.501901   22.472429 C.3        1 MOL1        -0.1880
      11    H5      19.638623   20.445302   21.909645 H          1 MOL1         0.0742
      12    H6      18.579035   19.328846   22.772595 H          1 MOL1         0.0742
      13    C5      20.091214   18.348061   21.560420 C.3        1 MOL1        -0.1880
      14    H7      21.132880   18.520277   21.256558 H          1 MOL1         0.0742
      15    H8      20.074067   17.405030   22.123898 H          1 MOL1         0.0742
      16    C6      19.204155   18.213926   20.304958 C.3        1 MOL1        -0.1856
      17    H9      19.220151   19.154952   19.737792 H          1 MOL1         0.0742
      18    H10     18.161510   18.039738   20.605046 H          1 MOL1         0.0742
      19    C7      19.675530   17.060351   19.396978 C.3        1 MOL1        -0.2871
      20    H11     20.706167   17.224758   19.056164 H          1 MOL1         0.0754
      21    H12     19.034035   16.979416   18.509837 H          1 MOL1         0.0754
      22    H13     19.639502   16.101167   19.929960 H          1 MOL1         0.0754
@<TRIPOS>BOND
    1     1     2    1
    2     1     3    2
    3     1     4    1
    4     4     5    1
    5     4     6    1
    6     4     7    1
    7     7     8    1
    8     7     9    1
    9     7    10    1
   10    10    11    1
   11    10    12    1
   12    10    13    1
   13    13    14    1
   14    13    15    1
   15    13    16    1
   16    16    17    1
   17    16    18    1
   18    16    19    1
   19    19    20    1
   20    19    21    1
   21    19    22    1
@<TRIPOS>SUBSTRUCTURE
       1 MOL1            1 RESIDUE      1      MOL     
@<SCITEGIC>MOL_PROPERTY
VConf Rank
SciTegic.value.IntegerValue
690

@<SCITEGIC>MOL_PROPERTY
Conf_Id
SciTegic.value.IntegerValue
44

@<SCITEGIC>MOL_PROPERTY
Delta U+W
SciTegic.value.DoubleValue
-0.155

@<SCITEGIC>MOL_PROPERTY
U+W
SciTegic.value.DoubleValue
-53.314

@<SCITEGIC>MOL_PROPERTY
Grad RMS
SciTegic.value.DoubleValue
0.000000

@<SCITEGIC>MOL_PROPERTY
U
SciTegic.value.DoubleValue
7.937

@<SCITEGIC>MOL_PROPERTY
W
SciTegic.value.DoubleValue
-61.252

@<SCITEGIC>MOL_PROPERTY
W(PB)
SciTegic.value.DoubleValue
-63.556

@<SCITEGIC>MOL_PROPERTY
W(SA)
SciTegic.value.DoubleValue
2.304

@<SCITEGIC>MOL_PROPERTY
Valence
SciTegic.value.DoubleValue
7.358

@<SCITEGIC>MOL_PROPERTY
Coulomb
SciTegic.value.DoubleValue
-0.021

@<SCITEGIC>MOL_PROPERTY
VdW
SciTegic.value.DoubleValue
0.600

@<SCITEGIC>MOL_PROPERTY
VdW6
SciTegic.value.DoubleValue
-7.363

@<SCITEGIC>MOL_PROPERTY
VdW12
SciTegic.value.DoubleValue
7.964

@<SCITEGIC>MOL_PROPERTY
Bond
SciTegic.value.DoubleValue
0.121

@<SCITEGIC>MOL_PROPERTY
Angle
SciTegic.value.DoubleValue
2.425

@<SCITEGIC>MOL_PROPERTY
Pdih
SciTegic.value.DoubleValue
4.811

@<SCITEGIC>MOL_PROPERTY
Idih
SciTegic.value.DoubleValue
0.001

@<SCITEGIC>MOL_PROPERTY
Tether
SciTegic.value.DoubleValue
0.000

@<TRIPOS>MOLECULE
guest-s21_confgen4.mol2 : confsearch ligand conformer 691
          22          21           1
SMALL
USER_CHARGES
 
@<TRIPOS>ATOM
       1    C1      21.049275   15.839183   21.493275 C.2        1 MOL1         0.6145
       2    O1      21.265860   15.738407   20.301697 O.co2      1 MOL1        -0.6735
       3    O2      20.426390   15.016486   22.135188 O.co2      1 MOL1        -0.6735
       4    C2      21.607314   17.056605   22.225249 C.3        1 MOL1        -0.1985
       5    H1      22.647742   17.183028   21.903446 H          1 MOL1         0.0740
       6    H2      21.631754   16.838878   23.299906 H          1 MOL1         0.0740
       7    C3      20.821645   18.367832   21.962506 C.3        1 MOL1        -0.1882
       8    H3      21.383444   19.202889   22.399802 H          1 MOL1         0.0742
       9    H4      20.771167   18.551026   20.880242 H          1 MOL1         0.0742
      10    C4      19.392771   18.332985   22.556066 C.3        1 MOL1        -0.1880
      11    H5      19.446678   18.191954   23.644187 H          1 MOL1         0.0742
      12    H6      18.858164   17.459868   22.157502 H          1 MOL1         0.0742
      13    C5      18.561641   19.598553   22.237656 C.3        1 MOL1        -0.1880
      14    H7      18.508181   19.739312   21.149425 H          1 MOL1         0.0742
      15    H8      17.531058   19.432422   22.580007 H          1 MOL1         0.0742
      16    C6      19.109592   20.881262   22.903111 C.3        1 MOL1        -0.1856
      17    H9      20.109954   21.112062   22.514237 H          1 MOL1         0.0742
      18    H10     19.214553   20.721671   23.985104 H          1 MOL1         0.0742
      19    C7      18.183746   22.088362   22.651201 C.3        1 MOL1        -0.2871
      20    H11     18.082488   22.287594   21.576288 H          1 MOL1         0.0754
      21    H12     18.587742   22.991508   23.126781 H          1 MOL1         0.0754
      22    H13     17.181899   21.908265   23.062570 H          1 MOL1         0.0754
@<TRIPOS>BOND
    1     1     2    1
    2     1     3    2
    3     1     4    1
    4     4     5    1
    5     4     6    1
    6     4     7    1
    7     7     8    1
    8     7     9    1
    9     7    10    1
   10    10    11    1
   11    10    12    1
   12    10    13    1
   13    13    14    1
   14    13    15    1
   15    13    16    1
   16    16    17    1
   17    16    18    1
   18    16    19    1
   19    19    20    1
   20    19    21    1
   21    19    22    1
@<TRIPOS>SUBSTRUCTURE
       1 MOL1            1 RESIDUE      1      MOL     
@<SCITEGIC>MOL_PROPERTY
VConf Rank
SciTegic.value.IntegerValue
691

@<SCITEGIC>MOL_PROPERTY
Conf_Id
SciTegic.value.IntegerValue
53

@<SCITEGIC>MOL_PROPERTY
Delta U+W
SciTegic.value.DoubleValue
0.723

@<SCITEGIC>MOL_PROPERTY
U+W
SciTegic.value.DoubleValue
-52.436

@<SCITEGIC>MOL_PROPERTY
Grad RMS
SciTegic.value.DoubleValue
0.000000

@<SCITEGIC>MOL_PROPERTY
U
SciTegic.value.DoubleValue
8.587

@<SCITEGIC>MOL_PROPERTY
W
SciTegic.value.DoubleValue
-61.022

@<SCITEGIC>MOL_PROPERTY
W(PB)
SciTegic.value.DoubleValue
-63.285

@<SCITEGIC>MOL_PROPERTY
W(SA)
SciTegic.value.DoubleValue
2.263

@<SCITEGIC>MOL_PROPERTY
Valence
SciTegic.value.DoubleValue
7.933

@<SCITEGIC>MOL_PROPERTY
Coulomb
SciTegic.value.DoubleValue
-0.124

@<SCITEGIC>MOL_PROPERTY
VdW
SciTegic.value.DoubleValue
0.778

@<SCITEGIC>MOL_PROPERTY
VdW6
SciTegic.value.DoubleValue
-7.981

@<SCITEGIC>MOL_PROPERTY
VdW12
SciTegic.value.DoubleValue
8.759

@<SCITEGIC>MOL_PROPERTY
Bond
SciTegic.value.DoubleValue
0.160

@<SCITEGIC>MOL_PROPERTY
Angle
SciTegic.value.DoubleValue
2.698

@<SCITEGIC>MOL_PROPERTY
Pdih
SciTegic.value.DoubleValue
5.074

@<SCITEGIC>MOL_PROPERTY
Idih
SciTegic.value.DoubleValue
0.001

@<SCITEGIC>MOL_PROPERTY
Tether
SciTegic.value.DoubleValue
0.000

@<TRIPOS>MOLECULE
guest-s21_confgen4.mol2 : confsearch ligand conformer 692
          22          21           1
SMALL
USER_CHARGES
 
@<TRIPOS>ATOM
       1    C1      18.219284   16.149042   21.474937 C.2        1 MOL1         0.6145
       2    O1      18.791309   15.211909   21.995644 O.co2      1 MOL1        -0.6735
       3    O2      17.204898   16.035618   20.815589 O.co2      1 MOL1        -0.6735
       4    C2      18.793093   17.546670   21.678360 C.3        1 MOL1        -0.1985
       5    H1      18.557885   18.144550   20.789823 H          1 MOL1         0.0740
       6    H2      19.883346   17.452102   21.734338 H          1 MOL1         0.0740
       7    C3      18.246662   18.240360   22.951679 C.3        1 MOL1        -0.1882
       8    H3      17.148835   18.197803   22.931995 H          1 MOL1         0.0742
       9    H4      18.560396   17.669817   23.836726 H          1 MOL1         0.0742
      10    C4      18.678139   19.720244   23.108002 C.3        1 MOL1        -0.1880
      11    H5      18.193392   20.111975   24.012719 H          1 MOL1         0.0742
      12    H6      18.283317   20.318482   22.275427 H          1 MOL1         0.0742
      13    C5      20.206425   19.935968   23.247698 C.3        1 MOL1        -0.1880
      14    H7      20.378470   20.759239   23.954535 H          1 MOL1         0.0742
      15    H8      20.673818   19.047567   23.694072 H          1 MOL1         0.0742
      16    C6      20.899206   20.296206   21.913143 C.3        1 MOL1        -0.1856
      17    H9      20.459856   21.218317   21.508326 H          1 MOL1         0.0742
      18    H10     20.728277   19.512763   21.165235 H          1 MOL1         0.0742
      19    C7      22.416731   20.495283   22.099744 C.3        1 MOL1        -0.2871
      20    H11     22.622402   21.303075   22.814240 H          1 MOL1         0.0754
      21    H12     22.892718   20.757132   21.145855 H          1 MOL1         0.0754
      22    H13     22.889529   19.577746   22.473839 H          1 MOL1         0.0754
@<TRIPOS>BOND
    1     1     2    1
    2     1     3    2
    3     1     4    1
    4     4     5    1
    5     4     6    1
    6     4     7    1
    7     7     8    1
    8     7     9    1
    9     7    10    1
   10    10    11    1
   11    10    12    1
   12    10    13    1
   13    13    14    1
   14    13    15    1
   15    13    16    1
   16    16    17    1
   17    16    18    1
   18    16    19    1
   19    19    20    1
   20    19    21    1
   21    19    22    1
@<TRIPOS>SUBSTRUCTURE
       1 MOL1            1 RESIDUE      1      MOL     
@<SCITEGIC>MOL_PROPERTY
VConf Rank
SciTegic.value.IntegerValue
692

@<SCITEGIC>MOL_PROPERTY
Conf_Id
SciTegic.value.IntegerValue
5

@<SCITEGIC>MOL_PROPERTY
Delta U+W
SciTegic.value.DoubleValue
2.167

@<SCITEGIC>MOL_PROPERTY
U+W
SciTegic.value.DoubleValue
-50.993

@<SCITEGIC>MOL_PROPERTY
Grad RMS
SciTegic.value.DoubleValue
0.000000

@<SCITEGIC>MOL_PROPERTY
U
SciTegic.value.DoubleValue
10.045

@<SCITEGIC>MOL_PROPERTY
W
SciTegic.value.DoubleValue
-61.037

@<SCITEGIC>MOL_PROPERTY
W(PB)
SciTegic.value.DoubleValue
-63.303

@<SCITEGIC>MOL_PROPERTY
W(SA)
SciTegic.value.DoubleValue
2.266

@<SCITEGIC>MOL_PROPERTY
Valence
SciTegic.value.DoubleValue
10.100

@<SCITEGIC>MOL_PROPERTY
Coulomb
SciTegic.value.DoubleValue
-0.883

@<SCITEGIC>MOL_PROPERTY
VdW
SciTegic.value.DoubleValue
0.828

@<SCITEGIC>MOL_PROPERTY
VdW6
SciTegic.value.DoubleValue
-8.177

@<SCITEGIC>MOL_PROPERTY
VdW12
SciTegic.value.DoubleValue
9.005

@<SCITEGIC>MOL_PROPERTY
Bond
SciTegic.value.DoubleValue
0.182

@<SCITEGIC>MOL_PROPERTY
Angle
SciTegic.value.DoubleValue
2.988

@<SCITEGIC>MOL_PROPERTY
Pdih
SciTegic.value.DoubleValue
6.930

@<SCITEGIC>MOL_PROPERTY
Idih
SciTegic.value.DoubleValue
0.001

@<SCITEGIC>MOL_PROPERTY
Tether
SciTegic.value.DoubleValue
0.000

@<TRIPOS>MOLECULE
guest-s21_confgen4.mol2 : confsearch ligand conformer 693
          22          21           1
SMALL
USER_CHARGES
 
@<TRIPOS>ATOM
       1    C1      19.286701   15.859009   21.094480 C.2        1 MOL1         0.6145
       2    O1      18.440193   15.308393   21.770361 O.co2      1 MOL1        -0.6735
       3    O2      19.861025   15.322651   20.167627 O.co2      1 MOL1        -0.6735
       4    C2      19.665597   17.294023   21.442581 C.3        1 MOL1        -0.1985
       5    H1      18.764743   17.792741   21.817379 H          1 MOL1         0.0740
       6    H2      19.964545   17.801703   20.517826 H          1 MOL1         0.0740
       7    C3      20.802959   17.376867   22.491717 C.3        1 MOL1        -0.1882
       8    H3      20.456335   16.934633   23.435928 H          1 MOL1         0.0742
       9    H4      21.642119   16.754724   22.150878 H          1 MOL1         0.0742
      10    C4      21.328695   18.810918   22.752045 C.3        1 MOL1        -0.1880
      11    H5      21.768022   19.224344   21.833881 H          1 MOL1         0.0742
      12    H6      22.156496   18.734084   23.470230 H          1 MOL1         0.0742
      13    C5      20.276031   19.789221   23.332160 C.3        1 MOL1        -0.1880
      14    H7      19.520815   19.234512   23.905667 H          1 MOL1         0.0742
      15    H8      20.776742   20.453883   24.049451 H          1 MOL1         0.0742
      16    C6      19.597268   20.668028   22.256179 C.3        1 MOL1        -0.1856
      17    H9      19.107729   20.043382   21.499519 H          1 MOL1         0.0742
      18    H10     20.359533   21.259280   21.730281 H          1 MOL1         0.0742
      19    C7      18.555478   21.619431   22.878142 C.3        1 MOL1        -0.2871
      20    H11     17.761601   21.054730   23.384334 H          1 MOL1         0.0754
      21    H12     18.088032   22.240965   22.103402 H          1 MOL1         0.0754
      22    H13     19.022813   22.288053   23.612903 H          1 MOL1         0.0754
@<TRIPOS>BOND
    1     1     2    1
    2     1     3    2
    3     1     4    1
    4     4     5    1
    5     4     6    1
    6     4     7    1
    7     7     8    1
    8     7     9    1
    9     7    10    1
   10    10    11    1
   11    10    12    1
   12    10    13    1
   13    13    14    1
   14    13    15    1
   15    13    16    1
   16    16    17    1
   17    16    18    1
   18    16    19    1
   19    19    20    1
   20    19    21    1
   21    19    22    1
@<TRIPOS>SUBSTRUCTURE
       1 MOL1            1 RESIDUE      1      MOL     
@<SCITEGIC>MOL_PROPERTY
VConf Rank
SciTegic.value.IntegerValue
693

@<SCITEGIC>MOL_PROPERTY
Conf_Id
SciTegic.value.IntegerValue
6

@<SCITEGIC>MOL_PROPERTY
Delta U+W
SciTegic.value.DoubleValue
2.118

@<SCITEGIC>MOL_PROPERTY
U+W
SciTegic.value.DoubleValue
-51.042

@<SCITEGIC>MOL_PROPERTY
Grad RMS
SciTegic.value.DoubleValue
0.000000

@<SCITEGIC>MOL_PROPERTY
U
SciTegic.value.DoubleValue
10.045

@<SCITEGIC>MOL_PROPERTY
W
SciTegic.value.DoubleValue
-61.086

@<SCITEGIC>MOL_PROPERTY
W(PB)
SciTegic.value.DoubleValue
-63.356

@<SCITEGIC>MOL_PROPERTY
W(SA)
SciTegic.value.DoubleValue
2.270

@<SCITEGIC>MOL_PROPERTY
Valence
SciTegic.value.DoubleValue
10.100

@<SCITEGIC>MOL_PROPERTY
Coulomb
SciTegic.value.DoubleValue
-0.883

@<SCITEGIC>MOL_PROPERTY
VdW
SciTegic.value.DoubleValue
0.828

@<SCITEGIC>MOL_PROPERTY
VdW6
SciTegic.value.DoubleValue
-8.177

@<SCITEGIC>MOL_PROPERTY
VdW12
SciTegic.value.DoubleValue
9.004

@<SCITEGIC>MOL_PROPERTY
Bond
SciTegic.value.DoubleValue
0.182

@<SCITEGIC>MOL_PROPERTY
Angle
SciTegic.value.DoubleValue
2.988

@<SCITEGIC>MOL_PROPERTY
Pdih
SciTegic.value.DoubleValue
6.930

@<SCITEGIC>MOL_PROPERTY
Idih
SciTegic.value.DoubleValue
0.001

@<SCITEGIC>MOL_PROPERTY
Tether
SciTegic.value.DoubleValue
0.000

@<TRIPOS>MOLECULE
guest-s21_confgen4.mol2 : confsearch ligand conformer 694
          22          21           1
SMALL
USER_CHARGES
 
@<TRIPOS>ATOM
       1    C1      17.943676   19.475515   24.654301 C.2        1 MOL1         0.6145
       2    O1      18.571638   19.289698   25.678327 O.co2      1 MOL1        -0.6735
       3    O2      17.052418   18.742826   24.272356 O.co2      1 MOL1        -0.6735
       4    C2      18.240437   20.733267   23.839776 C.3        1 MOL1        -0.1985
       5    H1      17.989469   21.583838   24.484040 H          1 MOL1         0.0740
       6    H2      17.554862   20.774413   22.984712 H          1 MOL1         0.0740
       7    C3      19.711304   20.880563   23.358178 C.3        1 MOL1        -0.1882
       8    H3      19.887519   21.939656   23.126466 H          1 MOL1         0.0742
       9    H4      20.400398   20.631955   24.177272 H          1 MOL1         0.0742
      10    C4      20.067163   20.056355   22.096053 C.3        1 MOL1        -0.1880
      11    H5      21.069966   20.357093   21.763011 H          1 MOL1         0.0742
      12    H6      19.379999   20.315872   21.279178 H          1 MOL1         0.0742
      13    C5      20.055954   18.526958   22.318150 C.3        1 MOL1        -0.1880
      14    H7      20.662563   18.277548   23.199550 H          1 MOL1         0.0742
      15    H8      19.033245   18.187532   22.525321 H          1 MOL1         0.0742
      16    C6      20.595406   17.767818   21.087442 C.3        1 MOL1        -0.1856
      17    H9      21.623391   18.091152   20.872829 H          1 MOL1         0.0742
      18    H10     19.990735   18.017653   20.204623 H          1 MOL1         0.0742
      19    C7      20.574738   16.241875   21.307640 C.3        1 MOL1        -0.2871
      20    H11     21.197545   15.960892   22.167017 H          1 MOL1         0.0754
      21    H12     20.960175   15.717807   20.423437 H          1 MOL1         0.0754
      22    H13     19.552887   15.886243   21.494319 H          1 MOL1         0.0754
@<TRIPOS>BOND
    1     1     2    1
    2     1     3    2
    3     1     4    1
    4     4     5    1
    5     4     6    1
    6     4     7    1
    7     7     8    1
    8     7     9    1
    9     7    10    1
   10    10    11    1
   11    10    12    1
   12    10    13    1
   13    13    14    1
   14    13    15    1
   15    13    16    1
   16    16    17    1
   17    16    18    1
   18    16    19    1
   19    19    20    1
   20    19    21    1
   21    19    22    1
@<TRIPOS>SUBSTRUCTURE
       1 MOL1            1 RESIDUE      1      MOL     
@<SCITEGIC>MOL_PROPERTY
VConf Rank
SciTegic.value.IntegerValue
694

@<SCITEGIC>MOL_PROPERTY
Conf_Id
SciTegic.value.IntegerValue
8

@<SCITEGIC>MOL_PROPERTY
Delta U+W
SciTegic.value.DoubleValue
1.886

@<SCITEGIC>MOL_PROPERTY
U+W
SciTegic.value.DoubleValue
-51.274

@<SCITEGIC>MOL_PROPERTY
Grad RMS
SciTegic.value.DoubleValue
0.000000

@<SCITEGIC>MOL_PROPERTY
U
SciTegic.value.DoubleValue
11.237

@<SCITEGIC>MOL_PROPERTY
W
SciTegic.value.DoubleValue
-62.510

@<SCITEGIC>MOL_PROPERTY
W(PB)
SciTegic.value.DoubleValue
-64.777

@<SCITEGIC>MOL_PROPERTY
W(SA)
SciTegic.value.DoubleValue
2.267

@<SCITEGIC>MOL_PROPERTY
Valence
SciTegic.value.DoubleValue
9.029

@<SCITEGIC>MOL_PROPERTY
Coulomb
SciTegic.value.DoubleValue
1.667

@<SCITEGIC>MOL_PROPERTY
VdW
SciTegic.value.DoubleValue
0.540

@<SCITEGIC>MOL_PROPERTY
VdW6
SciTegic.value.DoubleValue
-8.825

@<SCITEGIC>MOL_PROPERTY
VdW12
SciTegic.value.DoubleValue
9.365

@<SCITEGIC>MOL_PROPERTY
Bond
SciTegic.value.DoubleValue
0.186

@<SCITEGIC>MOL_PROPERTY
Angle
SciTegic.value.DoubleValue
3.195

@<SCITEGIC>MOL_PROPERTY
Pdih
SciTegic.value.DoubleValue
5.642

@<SCITEGIC>MOL_PROPERTY
Idih
SciTegic.value.DoubleValue
0.007

@<SCITEGIC>MOL_PROPERTY
Tether
SciTegic.value.DoubleValue
0.000

@<TRIPOS>MOLECULE
guest-s21_confgen4.mol2 : confsearch ligand conformer 695
          22          21           1
SMALL
USER_CHARGES
 
@<TRIPOS>ATOM
       1    C1      19.396037   20.149591   25.282567 C.2        1 MOL1         0.6145
       2    O1      19.999870   19.198617   25.738415 O.co2      1 MOL1        -0.6735
       3    O2      18.367228   20.584758   25.761615 O.co2      1 MOL1        -0.6735
       4    C2      19.975045   20.856097   24.059962 C.3        1 MOL1        -0.1985
       5    H1      21.014204   20.534642   23.927587 H          1 MOL1         0.0740
       6    H2      20.010124   21.927425   24.289634 H          1 MOL1         0.0740
       7    C3      19.161018   20.638114   22.754975 C.3        1 MOL1        -0.1882
       8    H3      18.150404   21.044152   22.900300 H          1 MOL1         0.0742
       9    H4      19.614308   21.225343   21.945024 H          1 MOL1         0.0742
      10    C4      19.042554   19.159957   22.308041 C.3        1 MOL1        -0.1880
      11    H5      18.373429   19.121836   21.439242 H          1 MOL1         0.0742
      12    H6      18.557574   18.571086   23.098579 H          1 MOL1         0.0742
      13    C5      20.402087   18.516169   21.941093 C.3        1 MOL1        -0.1880
      14    H7      20.899272   19.113209   21.164665 H          1 MOL1         0.0742
      15    H8      21.059888   18.533279   22.819693 H          1 MOL1         0.0742
      16    C6      20.278940   17.049141   21.467104 C.3        1 MOL1        -0.1856
      17    H9      19.767927   16.452967   22.235752 H          1 MOL1         0.0742
      18    H10     21.288240   16.626554   21.367558 H          1 MOL1         0.0742
      19    C7      19.544575   16.898889   20.116940 C.3        1 MOL1        -0.2871
      20    H11     18.491477   17.195419   20.196964 H          1 MOL1         0.0754
      21    H12     19.569864   15.854140   19.781147 H          1 MOL1         0.0754
      22    H13     20.018438   17.514444   19.341282 H          1 MOL1         0.0754
@<TRIPOS>BOND
    1     1     2    1
    2     1     3    2
    3     1     4    1
    4     4     5    1
    5     4     6    1
    6     4     7    1
    7     7     8    1
    8     7     9    1
    9     7    10    1
   10    10    11    1
   11    10    12    1
   12    10    13    1
   13    13    14    1
   14    13    15    1
   15    13    16    1
   16    16    17    1
   17    16    18    1
   18    16    19    1
   19    19    20    1
   20    19    21    1
   21    19    22    1
@<TRIPOS>SUBSTRUCTURE
       1 MOL1            1 RESIDUE      1      MOL     
@<SCITEGIC>MOL_PROPERTY
VConf Rank
SciTegic.value.IntegerValue
695

@<SCITEGIC>MOL_PROPERTY
Conf_Id
SciTegic.value.IntegerValue
93

@<SCITEGIC>MOL_PROPERTY
Delta U+W
SciTegic.value.DoubleValue
1.836

@<SCITEGIC>MOL_PROPERTY
U+W
SciTegic.value.DoubleValue
-51.323

@<SCITEGIC>MOL_PROPERTY
Grad RMS
SciTegic.value.DoubleValue
0.000000

@<SCITEGIC>MOL_PROPERTY
U
SciTegic.value.DoubleValue
10.427

@<SCITEGIC>MOL_PROPERTY
W
SciTegic.value.DoubleValue
-61.751

@<SCITEGIC>MOL_PROPERTY
W(PB)
SciTegic.value.DoubleValue
-63.980

@<SCITEGIC>MOL_PROPERTY
W(SA)
SciTegic.value.DoubleValue
2.230

@<SCITEGIC>MOL_PROPERTY
Valence
SciTegic.value.DoubleValue
8.446

@<SCITEGIC>MOL_PROPERTY
Coulomb
SciTegic.value.DoubleValue
1.306

@<SCITEGIC>MOL_PROPERTY
VdW
SciTegic.value.DoubleValue
0.676

@<SCITEGIC>MOL_PROPERTY
VdW6
SciTegic.value.DoubleValue
-8.928

@<SCITEGIC>MOL_PROPERTY
VdW12
SciTegic.value.DoubleValue
9.604

@<SCITEGIC>MOL_PROPERTY
Bond
SciTegic.value.DoubleValue
0.209

@<SCITEGIC>MOL_PROPERTY
Angle
SciTegic.value.DoubleValue
3.066

@<SCITEGIC>MOL_PROPERTY
Pdih
SciTegic.value.DoubleValue
5.170

@<SCITEGIC>MOL_PROPERTY
Idih
SciTegic.value.DoubleValue
0.001

@<SCITEGIC>MOL_PROPERTY
Tether
SciTegic.value.DoubleValue
0.000

@<TRIPOS>MOLECULE
guest-s21_confgen4.mol2 : confsearch ligand conformer 696
          22          21           1
SMALL
USER_CHARGES
 
@<TRIPOS>ATOM
       1    C1      21.514514   16.658662   22.946548 C.2        1 MOL1         0.6145
       2    O1      22.705654   16.696157   23.185469 O.co2      1 MOL1        -0.6735
       3    O2      21.043219   16.125096   21.961684 O.co2      1 MOL1        -0.6735
       4    C2      20.558723   17.290440   23.954755 C.3        1 MOL1        -0.1985
       5    H1      20.825946   16.901472   24.944209 H          1 MOL1         0.0740
       6    H2      19.543339   16.934617   23.747163 H          1 MOL1         0.0740
       7    C3      20.602322   18.842956   23.985494 C.3        1 MOL1        -0.1882
       8    H3      19.929816   19.206917   24.773910 H          1 MOL1         0.0742
       9    H4      21.614058   19.159560   24.274420 H          1 MOL1         0.0742
      10    C4      20.232502   19.525206   22.645159 C.3        1 MOL1        -0.1880
      11    H5      20.922935   19.194027   21.857411 H          1 MOL1         0.0742
      12    H6      20.389803   20.604997   22.760494 H          1 MOL1         0.0742
      13    C5      18.772951   19.260733   22.201076 C.3        1 MOL1        -0.1880
      14    H7      18.626428   18.181758   22.062229 H          1 MOL1         0.0742
      15    H8      18.080125   19.572397   22.994393 H          1 MOL1         0.0742
      16    C6      18.396253   19.966517   20.877460 C.3        1 MOL1        -0.1856
      17    H9      17.404641   19.614160   20.561667 H          1 MOL1         0.0742
      18    H10     19.097535   19.668354   20.085827 H          1 MOL1         0.0742
      19    C7      18.361121   21.506280   20.990178 C.3        1 MOL1        -0.2871
      20    H11     19.359075   21.917936   21.185053 H          1 MOL1         0.0754
      21    H12     17.691910   21.825830   21.799587 H          1 MOL1         0.0754
      22    H13     17.996312   21.950739   20.055154 H          1 MOL1         0.0754
@<TRIPOS>BOND
    1     1     2    1
    2     1     3    2
    3     1     4    1
    4     4     5    1
    5     4     6    1
    6     4     7    1
    7     7     8    1
    8     7     9    1
    9     7    10    1
   10    10    11    1
   11    10    12    1
   12    10    13    1
   13    13    14    1
   14    13    15    1
   15    13    16    1
   16    16    17    1
   17    16    18    1
   18    16    19    1
   19    19    20    1
   20    19    21    1
   21    19    22    1
@<TRIPOS>SUBSTRUCTURE
       1 MOL1            1 RESIDUE      1      MOL     
@<SCITEGIC>MOL_PROPERTY
VConf Rank
SciTegic.value.IntegerValue
696

@<SCITEGIC>MOL_PROPERTY
Conf_Id
SciTegic.value.IntegerValue
70

@<SCITEGIC>MOL_PROPERTY
Delta U+W
SciTegic.value.DoubleValue
1.803

@<SCITEGIC>MOL_PROPERTY
U+W
SciTegic.value.DoubleValue
-51.356

@<SCITEGIC>MOL_PROPERTY
Grad RMS
SciTegic.value.DoubleValue
0.000000

@<SCITEGIC>MOL_PROPERTY
U
SciTegic.value.DoubleValue
10.428

@<SCITEGIC>MOL_PROPERTY
W
SciTegic.value.DoubleValue
-61.784

@<SCITEGIC>MOL_PROPERTY
W(PB)
SciTegic.value.DoubleValue
-64.014

@<SCITEGIC>MOL_PROPERTY
W(SA)
SciTegic.value.DoubleValue
2.230

@<SCITEGIC>MOL_PROPERTY
Valence
SciTegic.value.DoubleValue
8.445

@<SCITEGIC>MOL_PROPERTY
Coulomb
SciTegic.value.DoubleValue
1.306

@<SCITEGIC>MOL_PROPERTY
VdW
SciTegic.value.DoubleValue
0.676

@<SCITEGIC>MOL_PROPERTY
VdW6
SciTegic.value.DoubleValue
-8.929

@<SCITEGIC>MOL_PROPERTY
VdW12
SciTegic.value.DoubleValue
9.605

@<SCITEGIC>MOL_PROPERTY
Bond
SciTegic.value.DoubleValue
0.209

@<SCITEGIC>MOL_PROPERTY
Angle
SciTegic.value.DoubleValue
3.066

@<SCITEGIC>MOL_PROPERTY
Pdih
SciTegic.value.DoubleValue
5.170

@<SCITEGIC>MOL_PROPERTY
Idih
SciTegic.value.DoubleValue
0.001

@<SCITEGIC>MOL_PROPERTY
Tether
SciTegic.value.DoubleValue
0.000

@<TRIPOS>MOLECULE
guest-s21_confgen4.mol2 : confsearch ligand conformer 697
          22          21           1
SMALL
USER_CHARGES
 
@<TRIPOS>ATOM
       1    C1      18.200714   17.199415   24.739823 C.2        1 MOL1         0.6145
       2    O1      18.540975   16.061334   24.483102 O.co2      1 MOL1        -0.6735
       3    O2      17.040623   17.552427   24.820130 O.co2      1 MOL1        -0.6735
       4    C2      19.291560   18.235596   24.995717 C.3        1 MOL1        -0.1985
       5    H1      20.033852   17.774364   25.657764 H          1 MOL1         0.0740
       6    H2      18.853469   19.076284   25.547223 H          1 MOL1         0.0740
       7    C3      19.990864   18.744557   23.708505 C.3        1 MOL1        -0.1882
       8    H3      20.840747   19.380003   23.991654 H          1 MOL1         0.0742
       9    H4      20.403951   17.884736   23.164724 H          1 MOL1         0.0742
      10    C4      19.035201   19.547352   22.793742 C.3        1 MOL1        -0.1880
      11    H5      18.567340   20.348535   23.382003 H          1 MOL1         0.0742
      12    H6      18.217532   18.899760   22.448276 H          1 MOL1         0.0742
      13    C5      19.740629   20.182610   21.572125 C.3        1 MOL1        -0.1880
      14    H7      19.020582   20.828984   21.051913 H          1 MOL1         0.0742
      15    H8      20.553745   20.836803   21.915257 H          1 MOL1         0.0742
      16    C6      20.294887   19.142965   20.572072 C.3        1 MOL1        -0.1856
      17    H9      19.492746   18.455719   20.269528 H          1 MOL1         0.0742
      18    H10     21.073882   18.535279   21.050864 H          1 MOL1         0.0742
      19    C7      20.886965   19.821898   19.320582 C.3        1 MOL1        -0.2871
      20    H11     20.123635   20.409039   18.793379 H          1 MOL1         0.0754
      21    H12     21.278852   19.071076   18.622190 H          1 MOL1         0.0754
      22    H13     21.710699   20.495062   19.592033 H          1 MOL1         0.0754
@<TRIPOS>BOND
    1     1     2    1
    2     1     3    2
    3     1     4    1
    4     4     5    1
    5     4     6    1
    6     4     7    1
    7     7     8    1
    8     7     9    1
    9     7    10    1
   10    10    11    1
   11    10    12    1
   12    10    13    1
   13    13    14    1
   14    13    15    1
   15    13    16    1
   16    16    17    1
   17    16    18    1
   18    16    19    1
   19    19    20    1
   20    19    21    1
   21    19    22    1
@<TRIPOS>SUBSTRUCTURE
       1 MOL1            1 RESIDUE      1      MOL     
@<SCITEGIC>MOL_PROPERTY
VConf Rank
SciTegic.value.IntegerValue
697

@<SCITEGIC>MOL_PROPERTY
Conf_Id
SciTegic.value.IntegerValue
85

@<SCITEGIC>MOL_PROPERTY
Delta U+W
SciTegic.value.DoubleValue
0.707

@<SCITEGIC>MOL_PROPERTY
U+W
SciTegic.value.DoubleValue
-52.452

@<SCITEGIC>MOL_PROPERTY
Grad RMS
SciTegic.value.DoubleValue
0.000000

@<SCITEGIC>MOL_PROPERTY
U
SciTegic.value.DoubleValue
8.925

@<SCITEGIC>MOL_PROPERTY
W
SciTegic.value.DoubleValue
-61.378

@<SCITEGIC>MOL_PROPERTY
W(PB)
SciTegic.value.DoubleValue
-63.661

@<SCITEGIC>MOL_PROPERTY
W(SA)
SciTegic.value.DoubleValue
2.283

@<SCITEGIC>MOL_PROPERTY
Valence
SciTegic.value.DoubleValue
7.881

@<SCITEGIC>MOL_PROPERTY
Coulomb
SciTegic.value.DoubleValue
0.349

@<SCITEGIC>MOL_PROPERTY
VdW
SciTegic.value.DoubleValue
0.695

@<SCITEGIC>MOL_PROPERTY
VdW6
SciTegic.value.DoubleValue
-8.049

@<SCITEGIC>MOL_PROPERTY
VdW12
SciTegic.value.DoubleValue
8.743

@<SCITEGIC>MOL_PROPERTY
Bond
SciTegic.value.DoubleValue
0.156

@<SCITEGIC>MOL_PROPERTY
Angle
SciTegic.value.DoubleValue
2.660

@<SCITEGIC>MOL_PROPERTY
Pdih
SciTegic.value.DoubleValue
5.064

@<SCITEGIC>MOL_PROPERTY
Idih
SciTegic.value.DoubleValue
0.001

@<SCITEGIC>MOL_PROPERTY
Tether
SciTegic.value.DoubleValue
0.000

@<TRIPOS>MOLECULE
guest-s21_confgen4.mol2 : confsearch ligand conformer 698
          22          21           1
SMALL
USER_CHARGES
 
@<TRIPOS>ATOM
       1    C1      22.079517   17.988455   24.711421 C.2        1 MOL1         0.6145
       2    O1      22.452338   16.838894   24.583149 O.co2      1 MOL1        -0.6735
       3    O2      22.834116   18.923061   24.895987 O.co2      1 MOL1        -0.6735
       4    C2      20.580856   18.272918   24.661496 C.3        1 MOL1        -0.1985
       5    H1      20.346063   18.935904   25.502515 H          1 MOL1         0.0740
       6    H2      20.039596   17.335110   24.835875 H          1 MOL1         0.0740
       7    C3      20.104668   18.927913   23.338653 C.3        1 MOL1        -0.1882
       8    H3      19.058057   19.233471   23.461720 H          1 MOL1         0.0742
       9    H4      20.687469   19.840617   23.152662 H          1 MOL1         0.0742
      10    C4      20.219579   17.973917   22.127137 C.3        1 MOL1        -0.1880
      11    H5      19.566822   17.104477   22.284244 H          1 MOL1         0.0742
      12    H6      21.244330   17.581802   22.072617 H          1 MOL1         0.0742
      13    C5      19.882995   18.631599   20.765267 C.3        1 MOL1        -0.1880
      14    H7      20.590718   19.445134   20.554987 H          1 MOL1         0.0742
      15    H8      20.054330   17.878361   19.984151 H          1 MOL1         0.0742
      16    C6      18.425706   19.140078   20.632374 C.3        1 MOL1        -0.1856
      17    H9      17.757089   18.554281   21.278132 H          1 MOL1         0.0742
      18    H10     18.085449   18.965244   19.602347 H          1 MOL1         0.0742
      19    C7      18.277025   20.648015   20.934118 C.3        1 MOL1        -0.2871
      20    H11     18.586518   20.892529   21.956532 H          1 MOL1         0.0754
      21    H12     17.231828   20.961820   20.816188 H          1 MOL1         0.0754
      22    H13     18.886652   21.245746   20.244074 H          1 MOL1         0.0754
@<TRIPOS>BOND
    1     1     2    1
    2     1     3    2
    3     1     4    1
    4     4     5    1
    5     4     6    1
    6     4     7    1
    7     7     8    1
    8     7     9    1
    9     7    10    1
   10    10    11    1
   11    10    12    1
   12    10    13    1
   13    13    14    1
   14    13    15    1
   15    13    16    1
   16    16    17    1
   17    16    18    1
   18    16    19    1
   19    19    20    1
   20    19    21    1
   21    19    22    1
@<TRIPOS>SUBSTRUCTURE
       1 MOL1            1 RESIDUE      1      MOL     
@<SCITEGIC>MOL_PROPERTY
VConf Rank
SciTegic.value.IntegerValue
698

@<SCITEGIC>MOL_PROPERTY
Conf_Id
SciTegic.value.IntegerValue
82

@<SCITEGIC>MOL_PROPERTY
Delta U+W
SciTegic.value.DoubleValue
3.438

@<SCITEGIC>MOL_PROPERTY
U+W
SciTegic.value.DoubleValue
-49.721

@<SCITEGIC>MOL_PROPERTY
Grad RMS
SciTegic.value.DoubleValue
0.000000

@<SCITEGIC>MOL_PROPERTY
U
SciTegic.value.DoubleValue
11.773

@<SCITEGIC>MOL_PROPERTY
W
SciTegic.value.DoubleValue
-61.495

@<SCITEGIC>MOL_PROPERTY
W(PB)
SciTegic.value.DoubleValue
-63.749

@<SCITEGIC>MOL_PROPERTY
W(SA)
SciTegic.value.DoubleValue
2.254

@<SCITEGIC>MOL_PROPERTY
Valence
SciTegic.value.DoubleValue
10.419

@<SCITEGIC>MOL_PROPERTY
Coulomb
SciTegic.value.DoubleValue
0.565

@<SCITEGIC>MOL_PROPERTY
VdW
SciTegic.value.DoubleValue
0.789

@<SCITEGIC>MOL_PROPERTY
VdW6
SciTegic.value.DoubleValue
-8.847

@<SCITEGIC>MOL_PROPERTY
VdW12
SciTegic.value.DoubleValue
9.636

@<SCITEGIC>MOL_PROPERTY
Bond
SciTegic.value.DoubleValue
0.200

@<SCITEGIC>MOL_PROPERTY
Angle
SciTegic.value.DoubleValue
3.187

@<SCITEGIC>MOL_PROPERTY
Pdih
SciTegic.value.DoubleValue
7.032

@<SCITEGIC>MOL_PROPERTY
Idih
SciTegic.value.DoubleValue
0.001

@<SCITEGIC>MOL_PROPERTY
Tether
SciTegic.value.DoubleValue
0.000

@<TRIPOS>MOLECULE
guest-s21_confgen4.mol2 : confsearch ligand conformer 699
          22          21           1
SMALL
USER_CHARGES
 
@<TRIPOS>ATOM
       1    C1      22.934713   18.244745   23.664157 C.2        1 MOL1         0.6145
       2    O1      22.779959   17.740686   24.759121 O.co2      1 MOL1        -0.6735
       3    O2      23.711607   17.819155   22.832142 O.co2      1 MOL1        -0.6735
       4    C2      22.125286   19.493786   23.326334 C.3        1 MOL1        -0.1985
       5    H1      22.609182   20.009519   22.488050 H          1 MOL1         0.0740
       6    H2      22.186235   20.166039   24.190251 H          1 MOL1         0.0740
       7    C3      20.636501   19.212623   22.994433 C.3        1 MOL1        -0.1882
       8    H3      20.176980   18.654700   23.821983 H          1 MOL1         0.0742
       9    H4      20.111230   20.173273   22.922684 H          1 MOL1         0.0742
      10    C4      20.458800   18.432776   21.671050 C.3        1 MOL1        -0.1880
      11    H5      21.075310   17.524048   21.702210 H          1 MOL1         0.0742
      12    H6      20.844017   19.035905   20.837658 H          1 MOL1         0.0742
      13    C5      18.997852   18.012975   21.371176 C.3        1 MOL1        -0.1880
      14    H7      19.008007   17.423012   20.444511 H          1 MOL1         0.0742
      15    H8      18.633513   17.332937   22.153309 H          1 MOL1         0.0742
      16    C6      18.009846   19.190948   21.181121 C.3        1 MOL1        -0.1856
      17    H9      17.288356   18.921060   20.397596 H          1 MOL1         0.0742
      18    H10     18.541757   20.079168   20.813226 H          1 MOL1         0.0742
      19    C7      17.216762   19.533235   22.462091 C.3        1 MOL1        -0.2871
      20    H11     16.623992   18.671585   22.795663 H          1 MOL1         0.0754
      21    H12     16.524539   20.364155   22.274425 H          1 MOL1         0.0754
      22    H13     17.877526   19.827555   23.285298 H          1 MOL1         0.0754
@<TRIPOS>BOND
    1     1     2    1
    2     1     3    2
    3     1     4    1
    4     4     5    1
    5     4     6    1
    6     4     7    1
    7     7     8    1
    8     7     9    1
    9     7    10    1
   10    10    11    1
   11    10    12    1
   12    10    13    1
   13    13    14    1
   14    13    15    1
   15    13    16    1
   16    16    17    1
   17    16    18    1
   18    16    19    1
   19    19    20    1
   20    19    21    1
   21    19    22    1
@<TRIPOS>SUBSTRUCTURE
       1 MOL1            1 RESIDUE      1      MOL     
@<SCITEGIC>MOL_PROPERTY
VConf Rank
SciTegic.value.IntegerValue
699

@<SCITEGIC>MOL_PROPERTY
Conf_Id
SciTegic.value.IntegerValue
94

@<SCITEGIC>MOL_PROPERTY
Delta U+W
SciTegic.value.DoubleValue
3.471

@<SCITEGIC>MOL_PROPERTY
U+W
SciTegic.value.DoubleValue
-49.688

@<SCITEGIC>MOL_PROPERTY
Grad RMS
SciTegic.value.DoubleValue
0.000000

@<SCITEGIC>MOL_PROPERTY
U
SciTegic.value.DoubleValue
11.773

@<SCITEGIC>MOL_PROPERTY
W
SciTegic.value.DoubleValue
-61.461

@<SCITEGIC>MOL_PROPERTY
W(PB)
SciTegic.value.DoubleValue
-63.710

@<SCITEGIC>MOL_PROPERTY
W(SA)
SciTegic.value.DoubleValue
2.248

@<SCITEGIC>MOL_PROPERTY
Valence
SciTegic.value.DoubleValue
10.419

@<SCITEGIC>MOL_PROPERTY
Coulomb
SciTegic.value.DoubleValue
0.566

@<SCITEGIC>MOL_PROPERTY
VdW
SciTegic.value.DoubleValue
0.789

@<SCITEGIC>MOL_PROPERTY
VdW6
SciTegic.value.DoubleValue
-8.847

@<SCITEGIC>MOL_PROPERTY
VdW12
SciTegic.value.DoubleValue
9.636

@<SCITEGIC>MOL_PROPERTY
Bond
SciTegic.value.DoubleValue
0.200

@<SCITEGIC>MOL_PROPERTY
Angle
SciTegic.value.DoubleValue
3.187

@<SCITEGIC>MOL_PROPERTY
Pdih
SciTegic.value.DoubleValue
7.032

@<SCITEGIC>MOL_PROPERTY
Idih
SciTegic.value.DoubleValue
0.001

@<SCITEGIC>MOL_PROPERTY
Tether
SciTegic.value.DoubleValue
0.000

@<TRIPOS>MOLECULE
guest-s21_confgen4.mol2 : confsearch ligand conformer 700
          22          21           1
SMALL
USER_CHARGES
 
@<TRIPOS>ATOM
       1    C1      17.427967   21.337621   21.867966 C.2        1 MOL1         0.6145
       2    O1      17.077495   22.309235   22.508149 O.co2      1 MOL1        -0.6735
       3    O2      16.679070   20.691249   21.162323 O.co2      1 MOL1        -0.6735
       4    C2      18.882840   20.894206   21.971225 C.3        1 MOL1        -0.1985
       5    H1      19.501974   21.787119   22.118236 H          1 MOL1         0.0740
       6    H2      19.167149   20.455420   21.008069 H          1 MOL1         0.0740
       7    C3      19.121649   19.882332   23.121675 C.3        1 MOL1        -0.1882
       8    H3      18.751316   20.319726   24.059032 H          1 MOL1         0.0742
       9    H4      18.519561   18.980425   22.948813 H          1 MOL1         0.0742
      10    C4      20.611323   19.500268   23.309597 C.3        1 MOL1        -0.1880
      11    H5      20.698963   18.826201   24.171819 H          1 MOL1         0.0742
      12    H6      21.177187   20.402313   23.579149 H          1 MOL1         0.0742
      13    C5      21.285386   18.843676   22.076028 C.3        1 MOL1        -0.1880
      14    H7      21.344706   19.576755   21.260965 H          1 MOL1         0.0742
      15    H8      22.325544   18.601850   22.333194 H          1 MOL1         0.0742
      16    C6      20.591639   17.563222   21.549643 C.3        1 MOL1        -0.1856
      17    H9      21.138482   17.206571   20.666088 H          1 MOL1         0.0742
      18    H10     19.576098   17.798158   21.203976 H          1 MOL1         0.0742
      19    C7      20.537375   16.426261   22.592801 C.3        1 MOL1        -0.2871
      20    H11     21.541907   16.186051   22.964510 H          1 MOL1         0.0754
      21    H12     20.114120   15.516461   22.147981 H          1 MOL1         0.0754
      22    H13     19.909413   16.701247   23.449540 H          1 MOL1         0.0754
@<TRIPOS>BOND
    1     1     2    1
    2     1     3    2
    3     1     4    1
    4     4     5    1
    5     4     6    1
    6     4     7    1
    7     7     8    1
    8     7     9    1
    9     7    10    1
   10    10    11    1
   11    10    12    1
   12    10    13    1
   13    13    14    1
   14    13    15    1
   15    13    16    1
   16    16    17    1
   17    16    18    1
   18    16    19    1
   19    19    20    1
   20    19    21    1
   21    19    22    1
@<TRIPOS>SUBSTRUCTURE
       1 MOL1            1 RESIDUE      1      MOL     
@<SCITEGIC>MOL_PROPERTY
VConf Rank
SciTegic.value.IntegerValue
700

@<SCITEGIC>MOL_PROPERTY
Conf_Id
SciTegic.value.IntegerValue
56

@<SCITEGIC>MOL_PROPERTY
Delta U+W
SciTegic.value.DoubleValue
0.853

@<SCITEGIC>MOL_PROPERTY
U+W
SciTegic.value.DoubleValue
-52.307

@<SCITEGIC>MOL_PROPERTY
Grad RMS
SciTegic.value.DoubleValue
0.000000

@<SCITEGIC>MOL_PROPERTY
U
SciTegic.value.DoubleValue
8.874

@<SCITEGIC>MOL_PROPERTY
W
SciTegic.value.DoubleValue
-61.181

@<SCITEGIC>MOL_PROPERTY
W(PB)
SciTegic.value.DoubleValue
-63.413

@<SCITEGIC>MOL_PROPERTY
W(SA)
SciTegic.value.DoubleValue
2.232

@<SCITEGIC>MOL_PROPERTY
Valence
SciTegic.value.DoubleValue
8.479

@<SCITEGIC>MOL_PROPERTY
Coulomb
SciTegic.value.DoubleValue
-0.357

@<SCITEGIC>MOL_PROPERTY
VdW
SciTegic.value.DoubleValue
0.753

@<SCITEGIC>MOL_PROPERTY
VdW6
SciTegic.value.DoubleValue
-9.081

@<SCITEGIC>MOL_PROPERTY
VdW12
SciTegic.value.DoubleValue
9.833

@<SCITEGIC>MOL_PROPERTY
Bond
SciTegic.value.DoubleValue
0.221

@<SCITEGIC>MOL_PROPERTY
Angle
SciTegic.value.DoubleValue
3.208

@<SCITEGIC>MOL_PROPERTY
Pdih
SciTegic.value.DoubleValue
5.050

@<SCITEGIC>MOL_PROPERTY
Idih
SciTegic.value.DoubleValue
0.000

@<SCITEGIC>MOL_PROPERTY
Tether
SciTegic.value.DoubleValue
0.000

@<TRIPOS>MOLECULE
guest-s21_confgen4.mol2 : confsearch ligand conformer 701
          22          21           1
SMALL
USER_CHARGES
 
@<TRIPOS>ATOM
       1    C1      19.447379   18.069925   18.218121 C.2        1 MOL1         0.6145
       2    O1      20.460031   18.673241   17.919882 O.co2      1 MOL1        -0.6735
       3    O2      18.754785   17.492868   17.403725 O.co2      1 MOL1        -0.6735
       4    C2      18.997880   18.017013   19.679175 C.3        1 MOL1        -0.1985
       5    H1      18.927366   16.959996   19.961507 H          1 MOL1         0.0740
       6    H2      17.983143   18.429621   19.724240 H          1 MOL1         0.0740
       7    C3      19.914179   18.767598   20.681885 C.3        1 MOL1        -0.1882
       8    H3      20.930570   18.353540   20.627157 H          1 MOL1         0.0742
       9    H4      19.985350   19.824531   20.389796 H          1 MOL1         0.0742
      10    C4      19.387898   18.663070   22.129854 C.3        1 MOL1        -0.1880
      11    H5      19.317602   17.605598   22.419581 H          1 MOL1         0.0742
      12    H6      18.371688   19.077467   22.182034 H          1 MOL1         0.0742
      13    C5      20.300743   19.410428   23.125583 C.3        1 MOL1        -0.1880
      14    H7      21.317120   18.996406   23.073723 H          1 MOL1         0.0742
      15    H8      20.371318   20.467993   22.836269 H          1 MOL1         0.0742
      16    C6      19.775452   19.306333   24.572765 C.3        1 MOL1        -0.1856
      17    H9      19.705456   18.249771   24.866456 H          1 MOL1         0.0742
      18    H10     18.759549   19.721373   24.628972 H          1 MOL1         0.0742
      19    C7      20.689739   20.053970   25.563953 C.3        1 MOL1        -0.2871
      20    H11     21.705777   19.638137   25.551399 H          1 MOL1         0.0754
      21    H12     20.301655   19.969631   26.587363 H          1 MOL1         0.0754
      22    H13     20.752728   21.120765   25.312180 H          1 MOL1         0.0754
@<TRIPOS>BOND
    1     1     2    1
    2     1     3    2
    3     1     4    1
    4     4     5    1
    5     4     6    1
    6     4     7    1
    7     7     8    1
    8     7     9    1
    9     7    10    1
   10    10    11    1
   11    10    12    1
   12    10    13    1
   13    13    14    1
   14    13    15    1
   15    13    16    1
   16    16    17    1
   17    16    18    1
   18    16    19    1
   19    19    20    1
   20    19    21    1
   21    19    22    1
@<TRIPOS>SUBSTRUCTURE
       1 MOL1            1 RESIDUE      1      MOL     
@<SCITEGIC>MOL_PROPERTY
VConf Rank
SciTegic.value.IntegerValue
701

@<SCITEGIC>MOL_PROPERTY
Conf_Id
SciTegic.value.IntegerValue
0

@<SCITEGIC>MOL_PROPERTY
Delta U+W
SciTegic.value.DoubleValue
0.000

@<SCITEGIC>MOL_PROPERTY
U+W
SciTegic.value.DoubleValue
-53.159

@<SCITEGIC>MOL_PROPERTY
Grad RMS
SciTegic.value.DoubleValue
0.000000

@<SCITEGIC>MOL_PROPERTY
U
SciTegic.value.DoubleValue
6.763

@<SCITEGIC>MOL_PROPERTY
W
SciTegic.value.DoubleValue
-59.922

@<SCITEGIC>MOL_PROPERTY
W(PB)
SciTegic.value.DoubleValue
-62.256

@<SCITEGIC>MOL_PROPERTY
W(SA)
SciTegic.value.DoubleValue
2.334

@<SCITEGIC>MOL_PROPERTY
Valence
SciTegic.value.DoubleValue
7.600

@<SCITEGIC>MOL_PROPERTY
Coulomb
SciTegic.value.DoubleValue
-2.139

@<SCITEGIC>MOL_PROPERTY
VdW
SciTegic.value.DoubleValue
1.302

@<SCITEGIC>MOL_PROPERTY
VdW6
SciTegic.value.DoubleValue
-6.786

@<SCITEGIC>MOL_PROPERTY
VdW12
SciTegic.value.DoubleValue
8.088

@<SCITEGIC>MOL_PROPERTY
Bond
SciTegic.value.DoubleValue
0.134

@<SCITEGIC>MOL_PROPERTY
Angle
SciTegic.value.DoubleValue
2.720

@<SCITEGIC>MOL_PROPERTY
Pdih
SciTegic.value.DoubleValue
4.746

@<SCITEGIC>MOL_PROPERTY
Idih
SciTegic.value.DoubleValue
0.000

@<SCITEGIC>MOL_PROPERTY
Tether
SciTegic.value.DoubleValue
0.000

@<TRIPOS>MOLECULE
guest-s21_confgen4.mol2 : confsearch ligand conformer 702
          22          21           1
SMALL
USER_CHARGES
 
@<TRIPOS>ATOM
       1    C1      17.318612   16.702437   19.964895 C.2        1 MOL1         0.6145
       2    O1      16.138515   16.925183   20.149786 O.co2      1 MOL1        -0.6735
       3    O2      17.761133   15.605234   19.687853 O.co2      1 MOL1        -0.6735
       4    C2      18.301005   17.859109   20.110590 C.3        1 MOL1        -0.1985
       5    H1      17.793822   18.778745   19.794841 H          1 MOL1         0.0740
       6    H2      19.131016   17.691009   19.413821 H          1 MOL1         0.0740
       7    C3      18.838369   18.013871   21.554661 C.3        1 MOL1        -0.1882
       8    H3      17.994420   18.168342   22.241291 H          1 MOL1         0.0742
       9    H4      19.331573   17.080641   21.860283 H          1 MOL1         0.0742
      10    C4      19.830299   19.190845   21.675844 C.3        1 MOL1        -0.1880
      11    H5      19.334522   20.121913   21.368448 H          1 MOL1         0.0742
      12    H6      20.672007   19.033953   20.987305 H          1 MOL1         0.0742
      13    C5      20.364287   19.342647   23.116366 C.3        1 MOL1        -0.1880
      14    H7      19.522870   19.499548   23.805223 H          1 MOL1         0.0742
      15    H8      20.860133   18.411769   23.424148 H          1 MOL1         0.0742
      16    C6      21.355725   20.518765   23.238293 C.3        1 MOL1        -0.1856
      17    H9      20.862680   21.452177   22.933128 H          1 MOL1         0.0742
      18    H10     22.199945   20.364409   22.552040 H          1 MOL1         0.0742
      19    C7      21.886663   20.667015   24.678248 C.3        1 MOL1        -0.2871
      20    H11     22.412719   19.758090   24.998448 H          1 MOL1         0.0754
      21    H12     21.065321   20.853898   25.382435 H          1 MOL1         0.0754
      22    H13     22.589643   21.507380   24.746784 H          1 MOL1         0.0754
@<TRIPOS>BOND
    1     1     2    1
    2     1     3    2
    3     1     4    1
    4     4     5    1
    5     4     6    1
    6     4     7    1
    7     7     8    1
    8     7     9    1
    9     7    10    1
   10    10    11    1
   11    10    12    1
   12    10    13    1
   13    13    14    1
   14    13    15    1
   15    13    16    1
   16    16    17    1
   17    16    18    1
   18    16    19    1
   19    19    20    1
   20    19    21    1
   21    19    22    1
@<TRIPOS>SUBSTRUCTURE
       1 MOL1            1 RESIDUE      1      MOL     
@<SCITEGIC>MOL_PROPERTY
VConf Rank
SciTegic.value.IntegerValue
702

@<SCITEGIC>MOL_PROPERTY
Conf_Id
SciTegic.value.IntegerValue
10

@<SCITEGIC>MOL_PROPERTY
Delta U+W
SciTegic.value.DoubleValue
-1.291

@<SCITEGIC>MOL_PROPERTY
U+W
SciTegic.value.DoubleValue
-54.451

@<SCITEGIC>MOL_PROPERTY
Grad RMS
SciTegic.value.DoubleValue
0.000000

@<SCITEGIC>MOL_PROPERTY
U
SciTegic.value.DoubleValue
5.779

@<SCITEGIC>MOL_PROPERTY
W
SciTegic.value.DoubleValue
-60.230

@<SCITEGIC>MOL_PROPERTY
W(PB)
SciTegic.value.DoubleValue
-62.557

@<SCITEGIC>MOL_PROPERTY
W(SA)
SciTegic.value.DoubleValue
2.328

@<SCITEGIC>MOL_PROPERTY
Valence
SciTegic.value.DoubleValue
7.101

@<SCITEGIC>MOL_PROPERTY
Coulomb
SciTegic.value.DoubleValue
-2.079

@<SCITEGIC>MOL_PROPERTY
VdW
SciTegic.value.DoubleValue
0.757

@<SCITEGIC>MOL_PROPERTY
VdW6
SciTegic.value.DoubleValue
-6.496

@<SCITEGIC>MOL_PROPERTY
VdW12
SciTegic.value.DoubleValue
7.253

@<SCITEGIC>MOL_PROPERTY
Bond
SciTegic.value.DoubleValue
0.100

@<SCITEGIC>MOL_PROPERTY
Angle
SciTegic.value.DoubleValue
2.262

@<SCITEGIC>MOL_PROPERTY
Pdih
SciTegic.value.DoubleValue
4.738

@<SCITEGIC>MOL_PROPERTY
Idih
SciTegic.value.DoubleValue
0.001

@<SCITEGIC>MOL_PROPERTY
Tether
SciTegic.value.DoubleValue
0.000

@<TRIPOS>MOLECULE
guest-s21_confgen4.mol2 : confsearch ligand conformer 703
          22          21           1
SMALL
USER_CHARGES
 
@<TRIPOS>ATOM
       1    C1      18.090779   21.401770   24.634568 C.2        1 MOL1         0.6145
       2    O1      17.644448   20.849209   25.620427 O.co2      1 MOL1        -0.6735
       3    O2      18.420452   22.571023   24.609670 O.co2      1 MOL1        -0.6735
       4    C2      18.266560   20.576997   23.364505 C.3        1 MOL1        -0.1985
       5    H1      18.112015   21.239114   22.504062 H          1 MOL1         0.0740
       6    H2      17.473702   19.819830   23.337466 H          1 MOL1         0.0740
       7    C3      19.656079   19.899290   23.274502 C.3        1 MOL1        -0.1882
       8    H3      20.438557   20.669670   23.316400 H          1 MOL1         0.0742
       9    H4      19.800494   19.249776   24.149046 H          1 MOL1         0.0742
      10    C4      19.808850   19.070725   21.980484 C.3        1 MOL1        -0.1880
      11    H5      19.666085   19.722903   21.108052 H          1 MOL1         0.0742
      12    H6      19.018647   18.309468   21.945364 H          1 MOL1         0.0742
      13    C5      21.196101   18.393334   21.897185 C.3        1 MOL1        -0.1880
      14    H7      21.975359   19.160226   22.004738 H          1 MOL1         0.0742
      15    H8      21.321706   17.701635   22.741406 H          1 MOL1         0.0742
      16    C6      21.432097   17.636715   20.569353 C.3        1 MOL1        -0.1856
      17    H9      22.473976   17.288875   20.542330 H          1 MOL1         0.0742
      18    H10     21.313485   18.326970   19.722719 H          1 MOL1         0.0742
      19    C7      20.497672   16.421561   20.383714 C.3        1 MOL1        -0.2871
      20    H11     20.763530   15.868591   19.473514 H          1 MOL1         0.0754
      21    H12     19.449828   16.732561   20.288819 H          1 MOL1         0.0754
      22    H13     20.576998   15.731404   21.233730 H          1 MOL1         0.0754
@<TRIPOS>BOND
    1     1     2    1
    2     1     3    2
    3     1     4    1
    4     4     5    1
    5     4     6    1
    6     4     7    1
    7     7     8    1
    8     7     9    1
    9     7    10    1
   10    10    11    1
   11    10    12    1
   12    10    13    1
   13    13    14    1
   14    13    15    1
   15    13    16    1
   16    16    17    1
   17    16    18    1
   18    16    19    1
   19    19    20    1
   20    19    21    1
   21    19    22    1
@<TRIPOS>SUBSTRUCTURE
       1 MOL1            1 RESIDUE      1      MOL     
@<SCITEGIC>MOL_PROPERTY
VConf Rank
SciTegic.value.IntegerValue
703

@<SCITEGIC>MOL_PROPERTY
Conf_Id
SciTegic.value.IntegerValue
37

@<SCITEGIC>MOL_PROPERTY
Delta U+W
SciTegic.value.DoubleValue
-0.345

@<SCITEGIC>MOL_PROPERTY
U+W
SciTegic.value.DoubleValue
-53.504

@<SCITEGIC>MOL_PROPERTY
Grad RMS
SciTegic.value.DoubleValue
0.000000

@<SCITEGIC>MOL_PROPERTY
U
SciTegic.value.DoubleValue
6.751

@<SCITEGIC>MOL_PROPERTY
W
SciTegic.value.DoubleValue
-60.255

@<SCITEGIC>MOL_PROPERTY
W(PB)
SciTegic.value.DoubleValue
-62.592

@<SCITEGIC>MOL_PROPERTY
W(SA)
SciTegic.value.DoubleValue
2.336

@<SCITEGIC>MOL_PROPERTY
Valence
SciTegic.value.DoubleValue
7.602

@<SCITEGIC>MOL_PROPERTY
Coulomb
SciTegic.value.DoubleValue
-1.744

@<SCITEGIC>MOL_PROPERTY
VdW
SciTegic.value.DoubleValue
0.894

@<SCITEGIC>MOL_PROPERTY
VdW6
SciTegic.value.DoubleValue
-7.110

@<SCITEGIC>MOL_PROPERTY
VdW12
SciTegic.value.DoubleValue
8.004

@<SCITEGIC>MOL_PROPERTY
Bond
SciTegic.value.DoubleValue
0.131

@<SCITEGIC>MOL_PROPERTY
Angle
SciTegic.value.DoubleValue
2.489

@<SCITEGIC>MOL_PROPERTY
Pdih
SciTegic.value.DoubleValue
4.982

@<SCITEGIC>MOL_PROPERTY
Idih
SciTegic.value.DoubleValue
0.001

@<SCITEGIC>MOL_PROPERTY
Tether
SciTegic.value.DoubleValue
0.000

@<TRIPOS>MOLECULE
guest-s21_confgen4.mol2 : confsearch ligand conformer 704
          22          21           1
SMALL
USER_CHARGES
 
@<TRIPOS>ATOM
       1    C1      20.316884   19.597928   26.020417 C.2        1 MOL1         0.6145
       2    O1      19.636390   20.508568   26.449503 O.co2      1 MOL1        -0.6735
       3    O2      21.372523   19.255587   26.515277 O.co2      1 MOL1        -0.6735
       4    C2      19.829924   18.858037   24.779594 C.3        1 MOL1        -0.1985
       5    H1      18.733436   18.849043   24.796641 H          1 MOL1         0.0740
       6    H2      20.163835   17.815916   24.851243 H          1 MOL1         0.0740
       7    C3      20.338773   19.492829   23.461920 C.3        1 MOL1        -0.1882
       8    H3      20.006728   20.539116   23.411141 H          1 MOL1         0.0742
       9    H4      21.437545   19.506560   23.466788 H          1 MOL1         0.0742
      10    C4      19.832383   18.725731   22.221163 C.3        1 MOL1        -0.1880
      11    H5      18.734706   18.711838   22.230051 H          1 MOL1         0.0742
      12    H6      20.167641   17.680880   22.273531 H          1 MOL1         0.0742
      13    C5      20.339862   19.365590   20.908414 C.3        1 MOL1        -0.1880
      14    H7      19.963848   20.394756   20.828613 H          1 MOL1         0.0742
      15    H8      21.435531   19.436692   20.945690 H          1 MOL1         0.0742
      16    C6      19.942437   18.570395   19.643097 C.3        1 MOL1        -0.1856
      17    H9      20.322459   17.542038   19.716415 H          1 MOL1         0.0742
      18    H10     20.437488   19.022682   18.772696 H          1 MOL1         0.0742
      19    C7      18.419360   18.544567   19.390544 C.3        1 MOL1        -0.2871
      20    H11     18.011553   19.562706   19.343400 H          1 MOL1         0.0754
      21    H12     17.891145   17.997942   20.181679 H          1 MOL1         0.0754
      22    H13     18.196775   18.046946   18.437785 H          1 MOL1         0.0754
@<TRIPOS>BOND
    1     1     2    1
    2     1     3    2
    3     1     4    1
    4     4     5    1
    5     4     6    1
    6     4     7    1
    7     7     8    1
    8     7     9    1
    9     7    10    1
   10    10    11    1
   11    10    12    1
   12    10    13    1
   13    13    14    1
   14    13    15    1
   15    13    16    1
   16    16    17    1
   17    16    18    1
   18    16    19    1
   19    19    20    1
   20    19    21    1
   21    19    22    1
@<TRIPOS>SUBSTRUCTURE
       1 MOL1            1 RESIDUE      1      MOL     
@<SCITEGIC>MOL_PROPERTY
VConf Rank
SciTegic.value.IntegerValue
704

@<SCITEGIC>MOL_PROPERTY
Conf_Id
SciTegic.value.IntegerValue
38

@<SCITEGIC>MOL_PROPERTY
Delta U+W
SciTegic.value.DoubleValue
-0.439

@<SCITEGIC>MOL_PROPERTY
U+W
SciTegic.value.DoubleValue
-53.598

@<SCITEGIC>MOL_PROPERTY
Grad RMS
SciTegic.value.DoubleValue
0.000000

@<SCITEGIC>MOL_PROPERTY
U
SciTegic.value.DoubleValue
6.751

@<SCITEGIC>MOL_PROPERTY
W
SciTegic.value.DoubleValue
-60.350

@<SCITEGIC>MOL_PROPERTY
W(PB)
SciTegic.value.DoubleValue
-62.659

@<SCITEGIC>MOL_PROPERTY
W(SA)
SciTegic.value.DoubleValue
2.309

@<SCITEGIC>MOL_PROPERTY
Valence
SciTegic.value.DoubleValue
7.602

@<SCITEGIC>MOL_PROPERTY
Coulomb
SciTegic.value.DoubleValue
-1.744

@<SCITEGIC>MOL_PROPERTY
VdW
SciTegic.value.DoubleValue
0.893

@<SCITEGIC>MOL_PROPERTY
VdW6
SciTegic.value.DoubleValue
-7.110

@<SCITEGIC>MOL_PROPERTY
VdW12
SciTegic.value.DoubleValue
8.004

@<SCITEGIC>MOL_PROPERTY
Bond
SciTegic.value.DoubleValue
0.131

@<SCITEGIC>MOL_PROPERTY
Angle
SciTegic.value.DoubleValue
2.489

@<SCITEGIC>MOL_PROPERTY
Pdih
SciTegic.value.DoubleValue
4.981

@<SCITEGIC>MOL_PROPERTY
Idih
SciTegic.value.DoubleValue
0.001

@<SCITEGIC>MOL_PROPERTY
Tether
SciTegic.value.DoubleValue
0.000

@<TRIPOS>MOLECULE
guest-s21_confgen4.mol2 : confsearch ligand conformer 705
          22          21           1
SMALL
USER_CHARGES
 
@<TRIPOS>ATOM
       1    C1      21.745874   21.780181   23.971510 C.2        1 MOL1         0.6145
       2    O1      21.700469   21.972078   25.170541 O.co2      1 MOL1        -0.6735
       3    O2      22.081730   22.626672   23.167031 O.co2      1 MOL1        -0.6735
       4    C2      21.337195   20.408689   23.445885 C.3        1 MOL1        -0.1985
       5    H1      21.605183   19.661141   24.202040 H          1 MOL1         0.0740
       6    H2      21.939933   20.201120   22.554772 H          1 MOL1         0.0740
       7    C3      19.823980   20.319011   23.117638 C.3        1 MOL1        -0.1882
       8    H3      19.253632   20.627769   24.004666 H          1 MOL1         0.0742
       9    H4      19.576537   21.038168   22.324619 H          1 MOL1         0.0742
      10    C4      19.361640   18.901968   22.701763 C.3        1 MOL1        -0.1880
      11    H5      18.266524   18.909469   22.631101 H          1 MOL1         0.0742
      12    H6      19.618021   18.184301   23.492895 H          1 MOL1         0.0742
      13    C5      19.960545   18.430230   21.353877 C.3        1 MOL1        -0.1880
      14    H7      19.705590   19.148928   20.563198 H          1 MOL1         0.0742
      15    H8      21.055549   18.419331   21.424076 H          1 MOL1         0.0742
      16    C6      19.494709   17.015694   20.936502 C.3        1 MOL1        -0.1856
      17    H9      19.737657   16.295550   21.730014 H          1 MOL1         0.0742
      18    H10     20.065736   16.704999   20.050702 H          1 MOL1         0.0742
      19    C7      17.988272   16.937555   20.606055 C.3        1 MOL1        -0.2871
      20    H11     17.371868   17.121265   21.494717 H          1 MOL1         0.0754
      21    H12     17.730749   15.941021   20.224584 H          1 MOL1         0.0754
      22    H13     17.715564   17.673698   19.838690 H          1 MOL1         0.0754
@<TRIPOS>BOND
    1     1     2    1
    2     1     3    2
    3     1     4    1
    4     4     5    1
    5     4     6    1
    6     4     7    1
    7     7     8    1
    8     7     9    1
    9     7    10    1
   10    10    11    1
   11    10    12    1
   12    10    13    1
   13    13    14    1
   14    13    15    1
   15    13    16    1
   16    16    17    1
   17    16    18    1
   18    16    19    1
   19    19    20    1
   20    19    21    1
   21    19    22    1
@<TRIPOS>SUBSTRUCTURE
       1 MOL1            1 RESIDUE      1      MOL     
@<SCITEGIC>MOL_PROPERTY
VConf Rank
SciTegic.value.IntegerValue
705

@<SCITEGIC>MOL_PROPERTY
Conf_Id
SciTegic.value.IntegerValue
60

@<SCITEGIC>MOL_PROPERTY
Delta U+W
SciTegic.value.DoubleValue
0.386

@<SCITEGIC>MOL_PROPERTY
U+W
SciTegic.value.DoubleValue
-52.773

@<SCITEGIC>MOL_PROPERTY
Grad RMS
SciTegic.value.DoubleValue
0.000000

@<SCITEGIC>MOL_PROPERTY
U
SciTegic.value.DoubleValue
7.689

@<SCITEGIC>MOL_PROPERTY
W
SciTegic.value.DoubleValue
-60.463

@<SCITEGIC>MOL_PROPERTY
W(PB)
SciTegic.value.DoubleValue
-62.772

@<SCITEGIC>MOL_PROPERTY
W(SA)
SciTegic.value.DoubleValue
2.309

@<SCITEGIC>MOL_PROPERTY
Valence
SciTegic.value.DoubleValue
8.197

@<SCITEGIC>MOL_PROPERTY
Coulomb
SciTegic.value.DoubleValue
-1.561

@<SCITEGIC>MOL_PROPERTY
VdW
SciTegic.value.DoubleValue
1.053

@<SCITEGIC>MOL_PROPERTY
VdW6
SciTegic.value.DoubleValue
-7.737

@<SCITEGIC>MOL_PROPERTY
VdW12
SciTegic.value.DoubleValue
8.790

@<SCITEGIC>MOL_PROPERTY
Bond
SciTegic.value.DoubleValue
0.181

@<SCITEGIC>MOL_PROPERTY
Angle
SciTegic.value.DoubleValue
2.780

@<SCITEGIC>MOL_PROPERTY
Pdih
SciTegic.value.DoubleValue
5.235

@<SCITEGIC>MOL_PROPERTY
Idih
SciTegic.value.DoubleValue
0.001

@<SCITEGIC>MOL_PROPERTY
Tether
SciTegic.value.DoubleValue
0.000

@<TRIPOS>MOLECULE
guest-s21_confgen4.mol2 : confsearch ligand conformer 706
          22          21           1
SMALL
USER_CHARGES
 
@<TRIPOS>ATOM
       1    C1      20.601777   15.437203   21.047559 C.2        1 MOL1         0.6145
       2    O1      21.053562   14.776805   21.962053 O.co2      1 MOL1        -0.6735
       3    O2      20.718000   15.133246   19.876806 O.co2      1 MOL1        -0.6735
       4    C2      19.868289   16.730067   21.386358 C.3        1 MOL1        -0.1985
       5    H1      19.357774   16.581352   22.344335 H          1 MOL1         0.0740
       6    H2      19.094543   16.891159   20.626238 H          1 MOL1         0.0740
       7    C3      20.815313   17.956513   21.454117 C.3        1 MOL1        -0.1882
       8    H3      21.555919   17.805536   22.251616 H          1 MOL1         0.0742
       9    H4      21.380607   18.015698   20.513698 H          1 MOL1         0.0742
      10    C4      20.077796   19.299326   21.672382 C.3        1 MOL1        -0.1880
      11    H5      19.332648   19.443204   20.878202 H          1 MOL1         0.0742
      12    H6      20.809492   20.109928   21.563414 H          1 MOL1         0.0742
      13    C5      19.393311   19.407351   23.057239 C.3        1 MOL1        -0.1880
      14    H7      18.659086   18.599207   23.166305 H          1 MOL1         0.0742
      15    H8      20.138238   19.261567   23.851300 H          1 MOL1         0.0742
      16    C6      18.660171   20.751403   23.276653 C.3        1 MOL1        -0.1856
      17    H9      18.092715   20.692720   24.215693 H          1 MOL1         0.0742
      18    H10     17.921950   20.906446   22.477725 H          1 MOL1         0.0742
      19    C7      19.611633   21.965545   23.348992 C.3        1 MOL1        -0.2871
      20    H11     20.380216   21.817214   24.118669 H          1 MOL1         0.0754
      21    H12     19.052691   22.876020   23.601057 H          1 MOL1         0.0754
      22    H13     20.113721   22.140370   22.389425 H          1 MOL1         0.0754
@<TRIPOS>BOND
    1     1     2    1
    2     1     3    2
    3     1     4    1
    4     4     5    1
    5     4     6    1
    6     4     7    1
    7     7     8    1
    8     7     9    1
    9     7    10    1
   10    10    11    1
   11    10    12    1
   12    10    13    1
   13    13    14    1
   14    13    15    1
   15    13    16    1
   16    16    17    1
   17    16    18    1
   18    16    19    1
   19    19    20    1
   20    19    21    1
   21    19    22    1
@<TRIPOS>SUBSTRUCTURE
       1 MOL1            1 RESIDUE      1      MOL     
@<SCITEGIC>MOL_PROPERTY
VConf Rank
SciTegic.value.IntegerValue
706

@<SCITEGIC>MOL_PROPERTY
Conf_Id
SciTegic.value.IntegerValue
28

@<SCITEGIC>MOL_PROPERTY
Delta U+W
SciTegic.value.DoubleValue
0.351

@<SCITEGIC>MOL_PROPERTY
U+W
SciTegic.value.DoubleValue
-52.808

@<SCITEGIC>MOL_PROPERTY
Grad RMS
SciTegic.value.DoubleValue
0.000000

@<SCITEGIC>MOL_PROPERTY
U
SciTegic.value.DoubleValue
7.689

@<SCITEGIC>MOL_PROPERTY
W
SciTegic.value.DoubleValue
-60.498

@<SCITEGIC>MOL_PROPERTY
W(PB)
SciTegic.value.DoubleValue
-62.768

@<SCITEGIC>MOL_PROPERTY
W(SA)
SciTegic.value.DoubleValue
2.270

@<SCITEGIC>MOL_PROPERTY
Valence
SciTegic.value.DoubleValue
8.197

@<SCITEGIC>MOL_PROPERTY
Coulomb
SciTegic.value.DoubleValue
-1.561

@<SCITEGIC>MOL_PROPERTY
VdW
SciTegic.value.DoubleValue
1.053

@<SCITEGIC>MOL_PROPERTY
VdW6
SciTegic.value.DoubleValue
-7.737

@<SCITEGIC>MOL_PROPERTY
VdW12
SciTegic.value.DoubleValue
8.791

@<SCITEGIC>MOL_PROPERTY
Bond
SciTegic.value.DoubleValue
0.181

@<SCITEGIC>MOL_PROPERTY
Angle
SciTegic.value.DoubleValue
2.780

@<SCITEGIC>MOL_PROPERTY
Pdih
SciTegic.value.DoubleValue
5.235

@<SCITEGIC>MOL_PROPERTY
Idih
SciTegic.value.DoubleValue
0.001

@<SCITEGIC>MOL_PROPERTY
Tether
SciTegic.value.DoubleValue
0.000

@<TRIPOS>MOLECULE
guest-s21_confgen4.mol2 : confsearch ligand conformer 707
          22          21           1
SMALL
USER_CHARGES
 
@<TRIPOS>ATOM
       1    C1      17.135015   20.167153   20.115946 C.2        1 MOL1         0.6145
       2    O1      16.281554   20.838142   20.661700 O.co2      1 MOL1        -0.6735
       3    O2      17.606260   20.432732   19.027896 O.co2      1 MOL1        -0.6735
       4    C2      17.657787   18.934848   20.845642 C.3        1 MOL1        -0.1985
       5    H1      17.929519   18.183615   20.094336 H          1 MOL1         0.0740
       6    H2      16.836259   18.516964   21.439848 H          1 MOL1         0.0740
       7    C3      18.872606   19.244349   21.754878 C.3        1 MOL1        -0.1882
       8    H3      19.672642   19.679468   21.141623 H          1 MOL1         0.0742
       9    H4      18.587021   20.004135   22.495467 H          1 MOL1         0.0742
      10    C4      19.384783   17.977272   22.478239 C.3        1 MOL1        -0.1880
      11    H5      19.719716   17.237615   21.738160 H          1 MOL1         0.0742
      12    H6      18.550127   17.515582   23.023356 H          1 MOL1         0.0742
      13    C5      20.528023   18.260052   23.481533 C.3        1 MOL1        -0.1880
      14    H7      20.192150   18.996639   24.224204 H          1 MOL1         0.0742
      15    H8      20.741274   17.335684   24.035604 H          1 MOL1         0.0742
      16    C6      21.829562   18.753507   22.810124 C.3        1 MOL1        -0.1856
      17    H9      21.657858   19.718251   22.315003 H          1 MOL1         0.0742
      18    H10     22.137004   18.042859   22.030595 H          1 MOL1         0.0742
      19    C7      22.969603   18.912797   23.836110 C.3        1 MOL1        -0.2871
      20    H11     23.195511   17.955985   24.324817 H          1 MOL1         0.0754
      21    H12     22.699300   19.639597   24.613338 H          1 MOL1         0.0754
      22    H13     23.885323   19.266644   23.344869 H          1 MOL1         0.0754
@<TRIPOS>BOND
    1     1     2    1
    2     1     3    2
    3     1     4    1
    4     4     5    1
    5     4     6    1
    6     4     7    1
    7     7     8    1
    8     7     9    1
    9     7    10    1
   10    10    11    1
   11    10    12    1
   12    10    13    1
   13    13    14    1
   14    13    15    1
   15    13    16    1
   16    16    17    1
   17    16    18    1
   18    16    19    1
   19    19    20    1
   20    19    21    1
   21    19    22    1
@<TRIPOS>SUBSTRUCTURE
       1 MOL1            1 RESIDUE      1      MOL     
@<SCITEGIC>MOL_PROPERTY
VConf Rank
SciTegic.value.IntegerValue
707

@<SCITEGIC>MOL_PROPERTY
Conf_Id
SciTegic.value.IntegerValue
50

@<SCITEGIC>MOL_PROPERTY
Delta U+W
SciTegic.value.DoubleValue
-0.486

@<SCITEGIC>MOL_PROPERTY
U+W
SciTegic.value.DoubleValue
-53.646

@<SCITEGIC>MOL_PROPERTY
Grad RMS
SciTegic.value.DoubleValue
0.000000

@<SCITEGIC>MOL_PROPERTY
U
SciTegic.value.DoubleValue
7.026

@<SCITEGIC>MOL_PROPERTY
W
SciTegic.value.DoubleValue
-60.672

@<SCITEGIC>MOL_PROPERTY
W(PB)
SciTegic.value.DoubleValue
-62.964

@<SCITEGIC>MOL_PROPERTY
W(SA)
SciTegic.value.DoubleValue
2.292

@<SCITEGIC>MOL_PROPERTY
Valence
SciTegic.value.DoubleValue
7.637

@<SCITEGIC>MOL_PROPERTY
Coulomb
SciTegic.value.DoubleValue
-1.488

@<SCITEGIC>MOL_PROPERTY
VdW
SciTegic.value.DoubleValue
0.877

@<SCITEGIC>MOL_PROPERTY
VdW6
SciTegic.value.DoubleValue
-7.165

@<SCITEGIC>MOL_PROPERTY
VdW12
SciTegic.value.DoubleValue
8.043

@<SCITEGIC>MOL_PROPERTY
Bond
SciTegic.value.DoubleValue
0.134

@<SCITEGIC>MOL_PROPERTY
Angle
SciTegic.value.DoubleValue
2.513

@<SCITEGIC>MOL_PROPERTY
Pdih
SciTegic.value.DoubleValue
4.990

@<SCITEGIC>MOL_PROPERTY
Idih
SciTegic.value.DoubleValue
0.001

@<SCITEGIC>MOL_PROPERTY
Tether
SciTegic.value.DoubleValue
0.000

@<TRIPOS>MOLECULE
guest-s21_confgen4.mol2 : confsearch ligand conformer 708
          22          21           1
SMALL
USER_CHARGES
 
@<TRIPOS>ATOM
       1    C1      18.080297   19.620446   25.552090 C.2        1 MOL1         0.6145
       2    O1      17.979601   20.776194   25.913448 O.co2      1 MOL1        -0.6735
       3    O2      18.392748   18.708716   26.292076 O.co2      1 MOL1        -0.6735
       4    C2      17.820107   19.299728   24.084518 C.3        1 MOL1        -0.1985
       5    H1      17.055171   19.993182   23.714910 H          1 MOL1         0.0740
       6    H2      17.397478   18.289464   24.026195 H          1 MOL1         0.0740
       7    C3      19.096151   19.395834   23.212295 C.3        1 MOL1        -0.1882
       8    H3      19.511981   20.410023   23.288530 H          1 MOL1         0.0742
       9    H4      19.852437   18.708463   23.613570 H          1 MOL1         0.0742
      10    C4      18.804498   19.061534   21.730995 C.3        1 MOL1        -0.1880
      11    H5      17.992469   19.708763   21.372294 H          1 MOL1         0.0742
      12    H6      18.438257   18.028995   21.649023 H          1 MOL1         0.0742
      13    C5      20.028217   19.251941   20.803732 C.3        1 MOL1        -0.1880
      14    H7      19.701145   19.116389   19.763743 H          1 MOL1         0.0742
      15    H8      20.392351   20.285453   20.882404 H          1 MOL1         0.0742
      16    C6      21.183631   18.268700   21.097920 C.3        1 MOL1        -0.1856
      17    H9      20.807878   17.236563   21.071282 H          1 MOL1         0.0742
      18    H10     21.578789   18.440227   22.107766 H          1 MOL1         0.0742
      19    C7      22.330204   18.422568   20.078405 C.3        1 MOL1        -0.2871
      20    H11     22.743497   19.439407   20.103209 H          1 MOL1         0.0754
      21    H12     21.979197   18.219724   19.058109 H          1 MOL1         0.0754
      22    H13     23.143763   17.720442   20.302479 H          1 MOL1         0.0754
@<TRIPOS>BOND
    1     1     2    1
    2     1     3    2
    3     1     4    1
    4     4     5    1
    5     4     6    1
    6     4     7    1
    7     7     8    1
    8     7     9    1
    9     7    10    1
   10    10    11    1
   11    10    12    1
   12    10    13    1
   13    13    14    1
   14    13    15    1
   15    13    16    1
   16    16    17    1
   17    16    18    1
   18    16    19    1
   19    19    20    1
   20    19    21    1
   21    19    22    1
@<TRIPOS>SUBSTRUCTURE
       1 MOL1            1 RESIDUE      1      MOL     
@<SCITEGIC>MOL_PROPERTY
VConf Rank
SciTegic.value.IntegerValue
708

@<SCITEGIC>MOL_PROPERTY
Conf_Id
SciTegic.value.IntegerValue
51

@<SCITEGIC>MOL_PROPERTY
Delta U+W
SciTegic.value.DoubleValue
-0.517

@<SCITEGIC>MOL_PROPERTY
U+W
SciTegic.value.DoubleValue
-53.677

@<SCITEGIC>MOL_PROPERTY
Grad RMS
SciTegic.value.DoubleValue
0.000000

@<SCITEGIC>MOL_PROPERTY
U
SciTegic.value.DoubleValue
7.026

@<SCITEGIC>MOL_PROPERTY
W
SciTegic.value.DoubleValue
-60.703

@<SCITEGIC>MOL_PROPERTY
W(PB)
SciTegic.value.DoubleValue
-63.007

@<SCITEGIC>MOL_PROPERTY
W(SA)
SciTegic.value.DoubleValue
2.304

@<SCITEGIC>MOL_PROPERTY
Valence
SciTegic.value.DoubleValue
7.638

@<SCITEGIC>MOL_PROPERTY
Coulomb
SciTegic.value.DoubleValue
-1.488

@<SCITEGIC>MOL_PROPERTY
VdW
SciTegic.value.DoubleValue
0.877

@<SCITEGIC>MOL_PROPERTY
VdW6
SciTegic.value.DoubleValue
-7.165

@<SCITEGIC>MOL_PROPERTY
VdW12
SciTegic.value.DoubleValue
8.042

@<SCITEGIC>MOL_PROPERTY
Bond
SciTegic.value.DoubleValue
0.134

@<SCITEGIC>MOL_PROPERTY
Angle
SciTegic.value.DoubleValue
2.513

@<SCITEGIC>MOL_PROPERTY
Pdih
SciTegic.value.DoubleValue
4.990

@<SCITEGIC>MOL_PROPERTY
Idih
SciTegic.value.DoubleValue
0.001

@<SCITEGIC>MOL_PROPERTY
Tether
SciTegic.value.DoubleValue
0.000

@<TRIPOS>MOLECULE
guest-s21_confgen4.mol2 : confsearch ligand conformer 709
          22          21           1
SMALL
USER_CHARGES
 
@<TRIPOS>ATOM
       1    C1      21.548701   19.001081   25.444814 C.2        1 MOL1         0.6145
       2    O1      22.760270   18.947122   25.366774 O.co2      1 MOL1        -0.6735
       3    O2      20.946541   19.947698   25.911839 O.co2      1 MOL1        -0.6735
       4    C2      20.742163   17.805449   24.945721 C.3        1 MOL1        -0.1985
       5    H1      19.738854   17.851275   25.386377 H          1 MOL1         0.0740
       6    H2      21.220267   16.900389   25.338563 H          1 MOL1         0.0740
       7    C3      20.644761   17.710879   23.400871 C.3        1 MOL1        -0.1882
       8    H3      21.656734   17.694232   22.972751 H          1 MOL1         0.0742
       9    H4      20.171718   16.756879   23.131321 H          1 MOL1         0.0742
      10    C4      19.834678   18.873273   22.784274 C.3        1 MOL1        -0.1880
      11    H5      20.311619   19.830827   23.035324 H          1 MOL1         0.0742
      12    H6      18.828521   18.893636   23.225011 H          1 MOL1         0.0742
      13    C5      19.723852   18.742178   21.250005 C.3        1 MOL1        -0.1880
      14    H7      20.730385   18.721920   20.810019 H          1 MOL1         0.0742
      15    H8      19.244585   17.786628   20.996463 H          1 MOL1         0.0742
      16    C6      18.915647   19.903082   20.633436 C.3        1 MOL1        -0.1856
      17    H9      19.393181   20.860643   20.883516 H          1 MOL1         0.0742
      18    H10     17.907494   19.925493   21.069998 H          1 MOL1         0.0742
      19    C7      18.807646   19.769137   19.101200 C.3        1 MOL1        -0.2871
      20    H11     19.801789   19.775782   18.635328 H          1 MOL1         0.0754
      21    H12     18.230306   20.602300   18.679769 H          1 MOL1         0.0754
      22    H13     18.304923   18.833525   18.823179 H          1 MOL1         0.0754
@<TRIPOS>BOND
    1     1     2    1
    2     1     3    2
    3     1     4    1
    4     4     5    1
    5     4     6    1
    6     4     7    1
    7     7     8    1
    8     7     9    1
    9     7    10    1
   10    10    11    1
   11    10    12    1
   12    10    13    1
   13    13    14    1
   14    13    15    1
   15    13    16    1
   16    16    17    1
   17    16    18    1
   18    16    19    1
   19    19    20    1
   20    19    21    1
   21    19    22    1
@<TRIPOS>SUBSTRUCTURE
       1 MOL1            1 RESIDUE      1      MOL     
@<SCITEGIC>MOL_PROPERTY
VConf Rank
SciTegic.value.IntegerValue
709

@<SCITEGIC>MOL_PROPERTY
Conf_Id
SciTegic.value.IntegerValue
43

@<SCITEGIC>MOL_PROPERTY
Delta U+W
SciTegic.value.DoubleValue
-0.129

@<SCITEGIC>MOL_PROPERTY
U+W
SciTegic.value.DoubleValue
-53.289

@<SCITEGIC>MOL_PROPERTY
Grad RMS
SciTegic.value.DoubleValue
0.000000

@<SCITEGIC>MOL_PROPERTY
U
SciTegic.value.DoubleValue
7.937

@<SCITEGIC>MOL_PROPERTY
W
SciTegic.value.DoubleValue
-61.225

@<SCITEGIC>MOL_PROPERTY
W(PB)
SciTegic.value.DoubleValue
-63.523

@<SCITEGIC>MOL_PROPERTY
W(SA)
SciTegic.value.DoubleValue
2.297

@<SCITEGIC>MOL_PROPERTY
Valence
SciTegic.value.DoubleValue
7.358

@<SCITEGIC>MOL_PROPERTY
Coulomb
SciTegic.value.DoubleValue
-0.022

@<SCITEGIC>MOL_PROPERTY
VdW
SciTegic.value.DoubleValue
0.601

@<SCITEGIC>MOL_PROPERTY
VdW6
SciTegic.value.DoubleValue
-7.363

@<SCITEGIC>MOL_PROPERTY
VdW12
SciTegic.value.DoubleValue
7.964

@<SCITEGIC>MOL_PROPERTY
Bond
SciTegic.value.DoubleValue
0.121

@<SCITEGIC>MOL_PROPERTY
Angle
SciTegic.value.DoubleValue
2.425

@<SCITEGIC>MOL_PROPERTY
Pdih
SciTegic.value.DoubleValue
4.811

@<SCITEGIC>MOL_PROPERTY
Idih
SciTegic.value.DoubleValue
0.000

@<SCITEGIC>MOL_PROPERTY
Tether
SciTegic.value.DoubleValue
0.000

@<TRIPOS>MOLECULE
guest-s21_confgen4.mol2 : confsearch ligand conformer 710
          22          21           1
SMALL
USER_CHARGES
 
@<TRIPOS>ATOM
       1    C1      19.814731   15.862995   23.651951 C.2        1 MOL1         0.6145
       2    O1      20.891884   15.584634   24.140988 O.co2      1 MOL1        -0.6735
       3    O2      19.331330   15.269519   22.708075 O.co2      1 MOL1        -0.6735
       4    C2      19.019057   17.009155   24.270297 C.3        1 MOL1        -0.1985
       5    H1      19.045494   16.877117   25.358372 H          1 MOL1         0.0740
       6    H2      17.970310   16.912570   23.964186 H          1 MOL1         0.0740
       7    C3      19.555617   18.417923   23.906323 C.3        1 MOL1        -0.1882
       8    H3      19.015848   19.168938   24.498916 H          1 MOL1         0.0742
       9    H4      20.614002   18.489572   24.193273 H          1 MOL1         0.0742
      10    C4      19.397319   18.744310   22.404324 C.3        1 MOL1        -0.1880
      11    H5      18.339674   18.658495   22.119654 H          1 MOL1         0.0742
      12    H6      19.949099   18.006787   21.805152 H          1 MOL1         0.0742
      13    C5      19.908599   20.162245   22.070392 C.3        1 MOL1        -0.1880
      14    H7      19.356340   20.901856   22.666249 H          1 MOL1         0.0742
      15    H8      20.966290   20.247245   22.355302 H          1 MOL1         0.0742
      16    C6      19.751547   20.488624   20.570438 C.3        1 MOL1        -0.1856
      17    H9      18.694413   20.406235   20.282093 H          1 MOL1         0.0742
      18    H10     20.304252   19.751767   19.971220 H          1 MOL1         0.0742
      19    C7      20.263711   21.905056   20.240644 C.3        1 MOL1        -0.2871
      20    H11     19.706176   22.665240   20.803381 H          1 MOL1         0.0754
      21    H12     20.144556   22.120157   19.170776 H          1 MOL1         0.0754
      22    H13     21.328138   22.005796   20.490137 H          1 MOL1         0.0754
@<TRIPOS>BOND
    1     1     2    1
    2     1     3    2
    3     1     4    1
    4     4     5    1
    5     4     6    1
    6     4     7    1
    7     7     8    1
    8     7     9    1
    9     7    10    1
   10    10    11    1
   11    10    12    1
   12    10    13    1
   13    13    14    1
   14    13    15    1
   15    13    16    1
   16    16    17    1
   17    16    18    1
   18    16    19    1
   19    19    20    1
   20    19    21    1
   21    19    22    1
@<TRIPOS>SUBSTRUCTURE
       1 MOL1            1 RESIDUE      1      MOL     
@<SCITEGIC>MOL_PROPERTY
VConf Rank
SciTegic.value.IntegerValue
710

@<SCITEGIC>MOL_PROPERTY
Conf_Id
SciTegic.value.IntegerValue
44

@<SCITEGIC>MOL_PROPERTY
Delta U+W
SciTegic.value.DoubleValue
-0.155

@<SCITEGIC>MOL_PROPERTY
U+W
SciTegic.value.DoubleValue
-53.314

@<SCITEGIC>MOL_PROPERTY
Grad RMS
SciTegic.value.DoubleValue
0.000000

@<SCITEGIC>MOL_PROPERTY
U
SciTegic.value.DoubleValue
7.937

@<SCITEGIC>MOL_PROPERTY
W
SciTegic.value.DoubleValue
-61.252

@<SCITEGIC>MOL_PROPERTY
W(PB)
SciTegic.value.DoubleValue
-63.556

@<SCITEGIC>MOL_PROPERTY
W(SA)
SciTegic.value.DoubleValue
2.304

@<SCITEGIC>MOL_PROPERTY
Valence
SciTegic.value.DoubleValue
7.358

@<SCITEGIC>MOL_PROPERTY
Coulomb
SciTegic.value.DoubleValue
-0.021

@<SCITEGIC>MOL_PROPERTY
VdW
SciTegic.value.DoubleValue
0.600

@<SCITEGIC>MOL_PROPERTY
VdW6
SciTegic.value.DoubleValue
-7.363

@<SCITEGIC>MOL_PROPERTY
VdW12
SciTegic.value.DoubleValue
7.964

@<SCITEGIC>MOL_PROPERTY
Bond
SciTegic.value.DoubleValue
0.121

@<SCITEGIC>MOL_PROPERTY
Angle
SciTegic.value.DoubleValue
2.425

@<SCITEGIC>MOL_PROPERTY
Pdih
SciTegic.value.DoubleValue
4.811

@<SCITEGIC>MOL_PROPERTY
Idih
SciTegic.value.DoubleValue
0.001

@<SCITEGIC>MOL_PROPERTY
Tether
SciTegic.value.DoubleValue
0.000

@<TRIPOS>MOLECULE
guest-s21_confgen4.mol2 : confsearch ligand conformer 711
          22          21           1
SMALL
USER_CHARGES
 
@<TRIPOS>ATOM
       1    C1      16.301758   19.813272   22.502951 C.2        1 MOL1         0.6145
       2    O1      15.792565   19.859419   21.400447 O.co2      1 MOL1        -0.6735
       3    O2      16.176082   20.686737   23.338494 O.co2      1 MOL1        -0.6735
       4    C2      17.127925   18.581437   22.862592 C.3        1 MOL1        -0.1985
       5    H1      16.554813   17.700685   22.549782 H          1 MOL1         0.0740
       6    H2      17.221143   18.528155   23.954086 H          1 MOL1         0.0740
       7    C3      18.531338   18.546318   22.203179 C.3        1 MOL1        -0.1882
       8    H3      18.979948   17.563099   22.393426 H          1 MOL1         0.0742
       9    H4      18.423861   18.641083   21.113744 H          1 MOL1         0.0742
      10    C4      19.466212   19.658200   22.736975 C.3        1 MOL1        -0.1880
      11    H5      19.606266   19.536638   23.819754 H          1 MOL1         0.0742
      12    H6      18.982415   20.634407   22.595727 H          1 MOL1         0.0742
      13    C5      20.845242   19.693498   22.036365 C.3        1 MOL1        -0.1880
      14    H7      20.704693   19.814856   20.953574 H          1 MOL1         0.0742
      15    H8      21.387001   20.585014   22.380748 H          1 MOL1         0.0742
      16    C6      21.711052   18.443588   22.312995 C.3        1 MOL1        -0.1856
      17    H9      21.225014   17.548083   21.904275 H          1 MOL1         0.0742
      18    H10     21.806093   18.291026   23.396917 H          1 MOL1         0.0742
      19    C7      23.115100   18.579554   21.690178 C.3        1 MOL1        -0.2871
      20    H11     23.050824   18.706303   20.601515 H          1 MOL1         0.0754
      21    H12     23.716233   17.683520   21.892232 H          1 MOL1         0.0754
      22    H13     23.647480   19.445261   22.105486 H          1 MOL1         0.0754
@<TRIPOS>BOND
    1     1     2    1
    2     1     3    2
    3     1     4    1
    4     4     5    1
    5     4     6    1
    6     4     7    1
    7     7     8    1
    8     7     9    1
    9     7    10    1
   10    10    11    1
   11    10    12    1
   12    10    13    1
   13    13    14    1
   14    13    15    1
   15    13    16    1
   16    16    17    1
   17    16    18    1
   18    16    19    1
   19    19    20    1
   20    19    21    1
   21    19    22    1
@<TRIPOS>SUBSTRUCTURE
       1 MOL1            1 RESIDUE      1      MOL     
@<SCITEGIC>MOL_PROPERTY
VConf Rank
SciTegic.value.IntegerValue
711

@<SCITEGIC>MOL_PROPERTY
Conf_Id
SciTegic.value.IntegerValue
53

@<SCITEGIC>MOL_PROPERTY
Delta U+W
SciTegic.value.DoubleValue
0.723

@<SCITEGIC>MOL_PROPERTY
U+W
SciTegic.value.DoubleValue
-52.436

@<SCITEGIC>MOL_PROPERTY
Grad RMS
SciTegic.value.DoubleValue
0.000000

@<SCITEGIC>MOL_PROPERTY
U
SciTegic.value.DoubleValue
8.587

@<SCITEGIC>MOL_PROPERTY
W
SciTegic.value.DoubleValue
-61.022

@<SCITEGIC>MOL_PROPERTY
W(PB)
SciTegic.value.DoubleValue
-63.285

@<SCITEGIC>MOL_PROPERTY
W(SA)
SciTegic.value.DoubleValue
2.263

@<SCITEGIC>MOL_PROPERTY
Valence
SciTegic.value.DoubleValue
7.933

@<SCITEGIC>MOL_PROPERTY
Coulomb
SciTegic.value.DoubleValue
-0.124

@<SCITEGIC>MOL_PROPERTY
VdW
SciTegic.value.DoubleValue
0.778

@<SCITEGIC>MOL_PROPERTY
VdW6
SciTegic.value.DoubleValue
-7.981

@<SCITEGIC>MOL_PROPERTY
VdW12
SciTegic.value.DoubleValue
8.759

@<SCITEGIC>MOL_PROPERTY
Bond
SciTegic.value.DoubleValue
0.160

@<SCITEGIC>MOL_PROPERTY
Angle
SciTegic.value.DoubleValue
2.698

@<SCITEGIC>MOL_PROPERTY
Pdih
SciTegic.value.DoubleValue
5.074

@<SCITEGIC>MOL_PROPERTY
Idih
SciTegic.value.DoubleValue
0.001

@<SCITEGIC>MOL_PROPERTY
Tether
SciTegic.value.DoubleValue
0.000

@<TRIPOS>MOLECULE
guest-s21_confgen4.mol2 : confsearch ligand conformer 712
          22          21           1
SMALL
USER_CHARGES
 
@<TRIPOS>ATOM
       1    C1      22.286079   16.797533   22.225016 C.2        1 MOL1         0.6145
       2    O1      23.303463   17.384057   21.912785 O.co2      1 MOL1        -0.6735
       3    O2      22.251981   15.618315   22.516332 O.co2      1 MOL1        -0.6735
       4    C2      20.984436   17.589466   22.275694 C.3        1 MOL1        -0.1985
       5    H1      20.161607   16.909603   22.024654 H          1 MOL1         0.0740
       6    H2      21.031749   18.354770   21.492878 H          1 MOL1         0.0740
       7    C3      20.734988   18.246487   23.656720 C.3        1 MOL1        -0.1882
       8    H3      20.829574   17.476538   24.434958 H          1 MOL1         0.0742
       9    H4      21.526444   18.982417   23.854862 H          1 MOL1         0.0742
      10    C4      19.348657   18.923167   23.801139 C.3        1 MOL1        -0.1880
      11    H5      19.273033   19.305644   24.828241 H          1 MOL1         0.0742
      12    H6      18.550968   18.174230   23.702434 H          1 MOL1         0.0742
      13    C5      19.101575   20.103307   22.827523 C.3        1 MOL1        -0.1880
      14    H7      18.519762   20.872511   23.353652 H          1 MOL1         0.0742
      15    H8      20.055986   20.574820   22.555975 H          1 MOL1         0.0742
      16    C6      18.320813   19.696279   21.556503 C.3        1 MOL1        -0.1856
      17    H9      17.345211   19.279508   21.842331 H          1 MOL1         0.0742
      18    H10     18.852324   18.906060   21.012983 H          1 MOL1         0.0742
      19    C7      18.104227   20.899253   20.616675 C.3        1 MOL1        -0.2871
      20    H11     17.537616   21.693954   21.119401 H          1 MOL1         0.0754
      21    H12     17.543057   20.596051   19.723260 H          1 MOL1         0.0754
      22    H13     19.064441   21.317897   20.287913 H          1 MOL1         0.0754
@<TRIPOS>BOND
    1     1     2    1
    2     1     3    2
    3     1     4    1
    4     4     5    1
    5     4     6    1
    6     4     7    1
    7     7     8    1
    8     7     9    1
    9     7    10    1
   10    10    11    1
   11    10    12    1
   12    10    13    1
   13    13    14    1
   14    13    15    1
   15    13    16    1
   16    16    17    1
   17    16    18    1
   18    16    19    1
   19    19    20    1
   20    19    21    1
   21    19    22    1
@<TRIPOS>SUBSTRUCTURE
       1 MOL1            1 RESIDUE      1      MOL     
@<SCITEGIC>MOL_PROPERTY
VConf Rank
SciTegic.value.IntegerValue
712

@<SCITEGIC>MOL_PROPERTY
Conf_Id
SciTegic.value.IntegerValue
5

@<SCITEGIC>MOL_PROPERTY
Delta U+W
SciTegic.value.DoubleValue
2.167

@<SCITEGIC>MOL_PROPERTY
U+W
SciTegic.value.DoubleValue
-50.993

@<SCITEGIC>MOL_PROPERTY
Grad RMS
SciTegic.value.DoubleValue
0.000000

@<SCITEGIC>MOL_PROPERTY
U
SciTegic.value.DoubleValue
10.045

@<SCITEGIC>MOL_PROPERTY
W
SciTegic.value.DoubleValue
-61.037

@<SCITEGIC>MOL_PROPERTY
W(PB)
SciTegic.value.DoubleValue
-63.303

@<SCITEGIC>MOL_PROPERTY
W(SA)
SciTegic.value.DoubleValue
2.266

@<SCITEGIC>MOL_PROPERTY
Valence
SciTegic.value.DoubleValue
10.100

@<SCITEGIC>MOL_PROPERTY
Coulomb
SciTegic.value.DoubleValue
-0.883

@<SCITEGIC>MOL_PROPERTY
VdW
SciTegic.value.DoubleValue
0.828

@<SCITEGIC>MOL_PROPERTY
VdW6
SciTegic.value.DoubleValue
-8.177

@<SCITEGIC>MOL_PROPERTY
VdW12
SciTegic.value.DoubleValue
9.005

@<SCITEGIC>MOL_PROPERTY
Bond
SciTegic.value.DoubleValue
0.182

@<SCITEGIC>MOL_PROPERTY
Angle
SciTegic.value.DoubleValue
2.988

@<SCITEGIC>MOL_PROPERTY
Pdih
SciTegic.value.DoubleValue
6.930

@<SCITEGIC>MOL_PROPERTY
Idih
SciTegic.value.DoubleValue
0.001

@<SCITEGIC>MOL_PROPERTY
Tether
SciTegic.value.DoubleValue
0.000

@<TRIPOS>MOLECULE
guest-s21_confgen4.mol2 : confsearch ligand conformer 713
          22          21           1
SMALL
USER_CHARGES
 
@<TRIPOS>ATOM
       1    C1      22.052434   16.494036   21.554935 C.2        1 MOL1         0.6145
       2    O1      22.604252   16.109785   22.567070 O.co2      1 MOL1        -0.6735
       3    O2      22.335462   16.096311   20.442148 O.co2      1 MOL1        -0.6735
       4    C2      20.960651   17.549901   21.685924 C.3        1 MOL1        -0.1985
       5    H1      20.441220   17.373225   22.634453 H          1 MOL1         0.0740
       6    H2      20.236304   17.393558   20.877740 H          1 MOL1         0.0740
       7    C3      21.515191   18.996006   21.636870 C.3        1 MOL1        -0.1882
       8    H3      22.176506   19.158721   22.499100 H          1 MOL1         0.0742
       9    H4      22.144884   19.101283   20.742540 H          1 MOL1         0.0742
      10    C4      20.425700   20.097155   21.602899 C.3        1 MOL1        -0.1880
      11    H5      19.820548   20.001376   20.690994 H          1 MOL1         0.0742
      12    H6      20.937392   21.065848   21.520732 H          1 MOL1         0.0742
      13    C5      19.510989   20.139324   22.853194 C.3        1 MOL1        -0.1880
      14    H7      20.050294   19.752532   23.728696 H          1 MOL1         0.0742
      15    H8      19.276971   21.188960   23.077899 H          1 MOL1         0.0742
      16    C6      18.177489   19.380119   22.663082 C.3        1 MOL1        -0.1856
      17    H9      18.363638   18.330292   22.406999 H          1 MOL1         0.0742
      18    H10     17.623663   19.815759   21.820057 H          1 MOL1         0.0742
      19    C7      17.304571   19.444280   23.932424 C.3        1 MOL1        -0.2871
      20    H11     17.820207   18.986022   24.786519 H          1 MOL1         0.0754
      21    H12     16.359353   18.907448   23.779428 H          1 MOL1         0.0754
      22    H13     17.065752   20.483634   24.193270 H          1 MOL1         0.0754
@<TRIPOS>BOND
    1     1     2    1
    2     1     3    2
    3     1     4    1
    4     4     5    1
    5     4     6    1
    6     4     7    1
    7     7     8    1
    8     7     9    1
    9     7    10    1
   10    10    11    1
   11    10    12    1
   12    10    13    1
   13    13    14    1
   14    13    15    1
   15    13    16    1
   16    16    17    1
   17    16    18    1
   18    16    19    1
   19    19    20    1
   20    19    21    1
   21    19    22    1
@<TRIPOS>SUBSTRUCTURE
       1 MOL1            1 RESIDUE      1      MOL     
@<SCITEGIC>MOL_PROPERTY
VConf Rank
SciTegic.value.IntegerValue
713

@<SCITEGIC>MOL_PROPERTY
Conf_Id
SciTegic.value.IntegerValue
6

@<SCITEGIC>MOL_PROPERTY
Delta U+W
SciTegic.value.DoubleValue
2.118

@<SCITEGIC>MOL_PROPERTY
U+W
SciTegic.value.DoubleValue
-51.042

@<SCITEGIC>MOL_PROPERTY
Grad RMS
SciTegic.value.DoubleValue
0.000000

@<SCITEGIC>MOL_PROPERTY
U
SciTegic.value.DoubleValue
10.045

@<SCITEGIC>MOL_PROPERTY
W
SciTegic.value.DoubleValue
-61.086

@<SCITEGIC>MOL_PROPERTY
W(PB)
SciTegic.value.DoubleValue
-63.356

@<SCITEGIC>MOL_PROPERTY
W(SA)
SciTegic.value.DoubleValue
2.270

@<SCITEGIC>MOL_PROPERTY
Valence
SciTegic.value.DoubleValue
10.100

@<SCITEGIC>MOL_PROPERTY
Coulomb
SciTegic.value.DoubleValue
-0.883

@<SCITEGIC>MOL_PROPERTY
VdW
SciTegic.value.DoubleValue
0.828

@<SCITEGIC>MOL_PROPERTY
VdW6
SciTegic.value.DoubleValue
-8.177

@<SCITEGIC>MOL_PROPERTY
VdW12
SciTegic.value.DoubleValue
9.004

@<SCITEGIC>MOL_PROPERTY
Bond
SciTegic.value.DoubleValue
0.182

@<SCITEGIC>MOL_PROPERTY
Angle
SciTegic.value.DoubleValue
2.988

@<SCITEGIC>MOL_PROPERTY
Pdih
SciTegic.value.DoubleValue
6.930

@<SCITEGIC>MOL_PROPERTY
Idih
SciTegic.value.DoubleValue
0.001

@<SCITEGIC>MOL_PROPERTY
Tether
SciTegic.value.DoubleValue
0.000

@<TRIPOS>MOLECULE
guest-s21_confgen4.mol2 : confsearch ligand conformer 714
          22          21           1
SMALL
USER_CHARGES
 
@<TRIPOS>ATOM
       1    C1      17.346688   17.920292   21.629281 C.2        1 MOL1         0.6145
       2    O1      16.690080   18.851002   21.204852 O.co2      1 MOL1        -0.6735
       3    O2      17.052245   17.292405   22.627338 O.co2      1 MOL1        -0.6735
       4    C2      18.567099   17.469218   20.828916 C.3        1 MOL1        -0.1985
       5    H1      18.189992   17.129783   19.857264 H          1 MOL1         0.0740
       6    H2      19.009719   16.592590   21.317233 H          1 MOL1         0.0740
       7    C3      19.649792   18.560730   20.597705 C.3        1 MOL1        -0.1882
       8    H3      20.262351   18.253882   19.739195 H          1 MOL1         0.0742
       9    H4      19.172152   19.506208   20.305295 H          1 MOL1         0.0742
      10    C4      20.602104   18.795231   21.796464 C.3        1 MOL1        -0.1880
      11    H5      21.408830   19.463950   21.466337 H          1 MOL1         0.0742
      12    H6      21.082212   17.848089   22.077973 H          1 MOL1         0.0742
      13    C5      19.916492   19.417896   23.033692 C.3        1 MOL1        -0.1880
      14    H7      19.350726   20.310109   22.732177 H          1 MOL1         0.0742
      15    H8      19.195105   18.707828   23.457328 H          1 MOL1         0.0742
      16    C6      20.941688   19.799139   24.122532 C.3        1 MOL1        -0.1856
      17    H9      21.666425   20.517531   23.715070 H          1 MOL1         0.0742
      18    H10     21.509617   18.908040   24.423887 H          1 MOL1         0.0742
      19    C7      20.254752   20.411642   25.359615 C.3        1 MOL1        -0.2871
      20    H11     19.704327   21.323073   25.091858 H          1 MOL1         0.0754
      21    H12     20.997274   20.675789   26.123756 H          1 MOL1         0.0754
      22    H13     19.545814   19.702104   25.806231 H          1 MOL1         0.0754
@<TRIPOS>BOND
    1     1     2    1
    2     1     3    2
    3     1     4    1
    4     4     5    1
    5     4     6    1
    6     4     7    1
    7     7     8    1
    8     7     9    1
    9     7    10    1
   10    10    11    1
   11    10    12    1
   12    10    13    1
   13    13    14    1
   14    13    15    1
   15    13    16    1
   16    16    17    1
   17    16    18    1
   18    16    19    1
   19    19    20    1
   20    19    21    1
   21    19    22    1
@<TRIPOS>SUBSTRUCTURE
       1 MOL1            1 RESIDUE      1      MOL     
@<SCITEGIC>MOL_PROPERTY
VConf Rank
SciTegic.value.IntegerValue
714

@<SCITEGIC>MOL_PROPERTY
Conf_Id
SciTegic.value.IntegerValue
8

@<SCITEGIC>MOL_PROPERTY
Delta U+W
SciTegic.value.DoubleValue
1.886

@<SCITEGIC>MOL_PROPERTY
U+W
SciTegic.value.DoubleValue
-51.274

@<SCITEGIC>MOL_PROPERTY
Grad RMS
SciTegic.value.DoubleValue
0.000000

@<SCITEGIC>MOL_PROPERTY
U
SciTegic.value.DoubleValue
11.237

@<SCITEGIC>MOL_PROPERTY
W
SciTegic.value.DoubleValue
-62.510

@<SCITEGIC>MOL_PROPERTY
W(PB)
SciTegic.value.DoubleValue
-64.777

@<SCITEGIC>MOL_PROPERTY
W(SA)
SciTegic.value.DoubleValue
2.267

@<SCITEGIC>MOL_PROPERTY
Valence
SciTegic.value.DoubleValue
9.029

@<SCITEGIC>MOL_PROPERTY
Coulomb
SciTegic.value.DoubleValue
1.667

@<SCITEGIC>MOL_PROPERTY
VdW
SciTegic.value.DoubleValue
0.540

@<SCITEGIC>MOL_PROPERTY
VdW6
SciTegic.value.DoubleValue
-8.825

@<SCITEGIC>MOL_PROPERTY
VdW12
SciTegic.value.DoubleValue
9.365

@<SCITEGIC>MOL_PROPERTY
Bond
SciTegic.value.DoubleValue
0.186

@<SCITEGIC>MOL_PROPERTY
Angle
SciTegic.value.DoubleValue
3.195

@<SCITEGIC>MOL_PROPERTY
Pdih
SciTegic.value.DoubleValue
5.642

@<SCITEGIC>MOL_PROPERTY
Idih
SciTegic.value.DoubleValue
0.007

@<SCITEGIC>MOL_PROPERTY
Tether
SciTegic.value.DoubleValue
0.000

@<TRIPOS>MOLECULE
guest-s21_confgen4.mol2 : confsearch ligand conformer 715
          22          21           1
SMALL
USER_CHARGES
 
@<TRIPOS>ATOM
       1    C1      18.551392   20.309306   19.920306 C.2        1 MOL1         0.6145
       2    O1      18.886586   19.344685   19.261583 O.co2      1 MOL1        -0.6735
       3    O2      18.764630   21.458277   19.586088 O.co2      1 MOL1        -0.6735
       4    C2      17.794965   20.068214   21.223708 C.3        1 MOL1        -0.1985
       5    H1      17.443147   19.030575   21.239145 H          1 MOL1         0.0740
       6    H2      16.898026   20.698044   21.200530 H          1 MOL1         0.0740
       7    C3      18.614605   20.390556   22.503329 C.3        1 MOL1        -0.1882
       8    H3      18.880805   21.456521   22.489823 H          1 MOL1         0.0742
       9    H4      17.977415   20.244369   23.385910 H          1 MOL1         0.0742
      10    C4      19.910017   19.557459   22.666393 C.3        1 MOL1        -0.1880
      11    H5      20.447191   19.935862   23.545169 H          1 MOL1         0.0742
      12    H6      20.569862   19.725019   21.804156 H          1 MOL1         0.0742
      13    C5      19.650088   18.040305   22.834092 C.3        1 MOL1        -0.1880
      14    H7      18.974742   17.869916   23.683426 H          1 MOL1         0.0742
      15    H8      19.135126   17.660259   21.942290 H          1 MOL1         0.0742
      16    C6      20.942805   17.213237   23.026037 C.3        1 MOL1        -0.1856
      17    H9      21.626699   17.393978   22.185204 H          1 MOL1         0.0742
      18    H10     20.684892   16.145778   22.991581 H          1 MOL1         0.0742
      19    C7      21.666653   17.504289   24.358758 C.3        1 MOL1        -0.2871
      20    H11     22.052947   18.530501   24.390617 H          1 MOL1         0.0754
      21    H12     22.519378   16.825267   24.487943 H          1 MOL1         0.0754
      22    H13     20.990531   17.363413   25.212052 H          1 MOL1         0.0754
@<TRIPOS>BOND
    1     1     2    1
    2     1     3    2
    3     1     4    1
    4     4     5    1
    5     4     6    1
    6     4     7    1
    7     7     8    1
    8     7     9    1
    9     7    10    1
   10    10    11    1
   11    10    12    1
   12    10    13    1
   13    13    14    1
   14    13    15    1
   15    13    16    1
   16    16    17    1
   17    16    18    1
   18    16    19    1
   19    19    20    1
   20    19    21    1
   21    19    22    1
@<TRIPOS>SUBSTRUCTURE
       1 MOL1            1 RESIDUE      1      MOL     
@<SCITEGIC>MOL_PROPERTY
VConf Rank
SciTegic.value.IntegerValue
715

@<SCITEGIC>MOL_PROPERTY
Conf_Id
SciTegic.value.IntegerValue
93

@<SCITEGIC>MOL_PROPERTY
Delta U+W
SciTegic.value.DoubleValue
1.836

@<SCITEGIC>MOL_PROPERTY
U+W
SciTegic.value.DoubleValue
-51.323

@<SCITEGIC>MOL_PROPERTY
Grad RMS
SciTegic.value.DoubleValue
0.000000

@<SCITEGIC>MOL_PROPERTY
U
SciTegic.value.DoubleValue
10.427

@<SCITEGIC>MOL_PROPERTY
W
SciTegic.value.DoubleValue
-61.751

@<SCITEGIC>MOL_PROPERTY
W(PB)
SciTegic.value.DoubleValue
-63.980

@<SCITEGIC>MOL_PROPERTY
W(SA)
SciTegic.value.DoubleValue
2.230

@<SCITEGIC>MOL_PROPERTY
Valence
SciTegic.value.DoubleValue
8.446

@<SCITEGIC>MOL_PROPERTY
Coulomb
SciTegic.value.DoubleValue
1.306

@<SCITEGIC>MOL_PROPERTY
VdW
SciTegic.value.DoubleValue
0.676

@<SCITEGIC>MOL_PROPERTY
VdW6
SciTegic.value.DoubleValue
-8.928

@<SCITEGIC>MOL_PROPERTY
VdW12
SciTegic.value.DoubleValue
9.604

@<SCITEGIC>MOL_PROPERTY
Bond
SciTegic.value.DoubleValue
0.209

@<SCITEGIC>MOL_PROPERTY
Angle
SciTegic.value.DoubleValue
3.066

@<SCITEGIC>MOL_PROPERTY
Pdih
SciTegic.value.DoubleValue
5.170

@<SCITEGIC>MOL_PROPERTY
Idih
SciTegic.value.DoubleValue
0.001

@<SCITEGIC>MOL_PROPERTY
Tether
SciTegic.value.DoubleValue
0.000

@<TRIPOS>MOLECULE
guest-s21_confgen4.mol2 : confsearch ligand conformer 716
          22          21           1
SMALL
USER_CHARGES
 
@<TRIPOS>ATOM
       1    C1      18.113083   20.686688   24.576209 C.2        1 MOL1         0.6145
       2    O1      18.472979   21.719098   25.107161 O.co2      1 MOL1        -0.6735
       3    O2      17.921380   19.650868   25.182092 O.co2      1 MOL1        -0.6735
       4    C2      17.859890   20.702434   23.071281 C.3        1 MOL1        -0.1985
       5    H1      17.211444   21.560563   22.859491 H          1 MOL1         0.0740
       6    H2      17.286443   19.808374   22.801976 H          1 MOL1         0.0740
       7    C3      19.148853   20.809395   22.210882 C.3        1 MOL1        -0.1882
       8    H3      18.870178   20.871741   21.150324 H          1 MOL1         0.0742
       9    H4      19.653727   21.755084   22.451923 H          1 MOL1         0.0742
      10    C4      20.153128   19.646669   22.406406 C.3        1 MOL1        -0.1880
      11    H5      20.465165   19.598981   23.458682 H          1 MOL1         0.0742
      12    H6      21.055402   19.877842   21.826357 H          1 MOL1         0.0742
      13    C5      19.595742   18.270446   21.967346 C.3        1 MOL1        -0.1880
      14    H7      18.708093   18.031064   22.567103 H          1 MOL1         0.0742
      15    H8      19.264291   18.319519   20.921293 H          1 MOL1         0.0742
      16    C6      20.609884   17.114971   22.135838 C.3        1 MOL1        -0.1856
      17    H9      20.094148   16.164308   21.942362 H          1 MOL1         0.0742
      18    H10     20.954860   17.073680   23.178270 H          1 MOL1         0.0742
      19    C7      21.824762   17.220235   21.188316 C.3        1 MOL1        -0.2871
      20    H11     22.443598   18.094846   21.423790 H          1 MOL1         0.0754
      21    H12     21.501511   17.297798   20.142088 H          1 MOL1         0.0754
      22    H13     22.460619   16.330207   21.280152 H          1 MOL1         0.0754
@<TRIPOS>BOND
    1     1     2    1
    2     1     3    2
    3     1     4    1
    4     4     5    1
    5     4     6    1
    6     4     7    1
    7     7     8    1
    8     7     9    1
    9     7    10    1
   10    10    11    1
   11    10    12    1
   12    10    13    1
   13    13    14    1
   14    13    15    1
   15    13    16    1
   16    16    17    1
   17    16    18    1
   18    16    19    1
   19    19    20    1
   20    19    21    1
   21    19    22    1
@<TRIPOS>SUBSTRUCTURE
       1 MOL1            1 RESIDUE      1      MOL     
@<SCITEGIC>MOL_PROPERTY
VConf Rank
SciTegic.value.IntegerValue
716

@<SCITEGIC>MOL_PROPERTY
Conf_Id
SciTegic.value.IntegerValue
70

@<SCITEGIC>MOL_PROPERTY
Delta U+W
SciTegic.value.DoubleValue
1.803

@<SCITEGIC>MOL_PROPERTY
U+W
SciTegic.value.DoubleValue
-51.356

@<SCITEGIC>MOL_PROPERTY
Grad RMS
SciTegic.value.DoubleValue
0.000000

@<SCITEGIC>MOL_PROPERTY
U
SciTegic.value.DoubleValue
10.428

@<SCITEGIC>MOL_PROPERTY
W
SciTegic.value.DoubleValue
-61.784

@<SCITEGIC>MOL_PROPERTY
W(PB)
SciTegic.value.DoubleValue
-64.014

@<SCITEGIC>MOL_PROPERTY
W(SA)
SciTegic.value.DoubleValue
2.230

@<SCITEGIC>MOL_PROPERTY
Valence
SciTegic.value.DoubleValue
8.445

@<SCITEGIC>MOL_PROPERTY
Coulomb
SciTegic.value.DoubleValue
1.306

@<SCITEGIC>MOL_PROPERTY
VdW
SciTegic.value.DoubleValue
0.676

@<SCITEGIC>MOL_PROPERTY
VdW6
SciTegic.value.DoubleValue
-8.929

@<SCITEGIC>MOL_PROPERTY
VdW12
SciTegic.value.DoubleValue
9.605

@<SCITEGIC>MOL_PROPERTY
Bond
SciTegic.value.DoubleValue
0.209

@<SCITEGIC>MOL_PROPERTY
Angle
SciTegic.value.DoubleValue
3.066

@<SCITEGIC>MOL_PROPERTY
Pdih
SciTegic.value.DoubleValue
5.170

@<SCITEGIC>MOL_PROPERTY
Idih
SciTegic.value.DoubleValue
0.001

@<SCITEGIC>MOL_PROPERTY
Tether
SciTegic.value.DoubleValue
0.000

@<TRIPOS>MOLECULE
guest-s21_confgen4.mol2 : confsearch ligand conformer 717
          22          21           1
SMALL
USER_CHARGES
 
@<TRIPOS>ATOM
       1    C1      19.080382   21.085660   24.925874 C.2        1 MOL1         0.6145
       2    O1      17.867099   21.140359   24.969087 O.co2      1 MOL1        -0.6735
       3    O2      19.793584   22.062235   24.805371 O.co2      1 MOL1        -0.6735
       4    C2      19.743305   19.716739   25.051114 C.3        1 MOL1        -0.1985
       5    H1      19.247893   19.185836   25.872544 H          1 MOL1         0.0740
       6    H2      20.788570   19.859995   25.350678 H          1 MOL1         0.0740
       7    C3      19.667655   18.860153   23.760564 C.3        1 MOL1        -0.1882
       8    H3      20.047619   17.852901   23.978132 H          1 MOL1         0.0742
       9    H4      18.614777   18.747021   23.470252 H          1 MOL1         0.0742
      10    C4      20.481248   19.472416   22.595332 C.3        1 MOL1        -0.1880
      11    H5      21.508957   19.657720   22.936387 H          1 MOL1         0.0742
      12    H6      20.064490   20.452051   22.323430 H          1 MOL1         0.0742
      13    C5      20.535396   18.569207   21.340417 C.3        1 MOL1        -0.1880
      14    H7      21.228132   19.020239   20.616831 H          1 MOL1         0.0742
      15    H8      20.959071   17.591603   21.608102 H          1 MOL1         0.0742
      16    C6      19.160201   18.373495   20.663141 C.3        1 MOL1        -0.1856
      17    H9      18.712810   19.352684   20.443367 H          1 MOL1         0.0742
      18    H10     18.473807   17.853099   21.343883 H          1 MOL1         0.0742
      19    C7      19.283117   17.561828   19.357836 C.3        1 MOL1        -0.2871
      20    H11     19.933753   18.073307   18.636439 H          1 MOL1         0.0754
      21    H12     18.298533   17.428903   18.890948 H          1 MOL1         0.0754
      22    H13     19.703049   16.566344   19.552877 H          1 MOL1         0.0754
@<TRIPOS>BOND
    1     1     2    1
    2     1     3    2
    3     1     4    1
    4     4     5    1
    5     4     6    1
    6     4     7    1
    7     7     8    1
    8     7     9    1
    9     7    10    1
   10    10    11    1
   11    10    12    1
   12    10    13    1
   13    13    14    1
   14    13    15    1
   15    13    16    1
   16    16    17    1
   17    16    18    1
   18    16    19    1
   19    19    20    1
   20    19    21    1
   21    19    22    1
@<TRIPOS>SUBSTRUCTURE
       1 MOL1            1 RESIDUE      1      MOL     
@<SCITEGIC>MOL_PROPERTY
VConf Rank
SciTegic.value.IntegerValue
717

@<SCITEGIC>MOL_PROPERTY
Conf_Id
SciTegic.value.IntegerValue
85

@<SCITEGIC>MOL_PROPERTY
Delta U+W
SciTegic.value.DoubleValue
0.707

@<SCITEGIC>MOL_PROPERTY
U+W
SciTegic.value.DoubleValue
-52.452

@<SCITEGIC>MOL_PROPERTY
Grad RMS
SciTegic.value.DoubleValue
0.000000

@<SCITEGIC>MOL_PROPERTY
U
SciTegic.value.DoubleValue
8.925

@<SCITEGIC>MOL_PROPERTY
W
SciTegic.value.DoubleValue
-61.378

@<SCITEGIC>MOL_PROPERTY
W(PB)
SciTegic.value.DoubleValue
-63.661

@<SCITEGIC>MOL_PROPERTY
W(SA)
SciTegic.value.DoubleValue
2.283

@<SCITEGIC>MOL_PROPERTY
Valence
SciTegic.value.DoubleValue
7.881

@<SCITEGIC>MOL_PROPERTY
Coulomb
SciTegic.value.DoubleValue
0.349

@<SCITEGIC>MOL_PROPERTY
VdW
SciTegic.value.DoubleValue
0.695

@<SCITEGIC>MOL_PROPERTY
VdW6
SciTegic.value.DoubleValue
-8.049

@<SCITEGIC>MOL_PROPERTY
VdW12
SciTegic.value.DoubleValue
8.743

@<SCITEGIC>MOL_PROPERTY
Bond
SciTegic.value.DoubleValue
0.156

@<SCITEGIC>MOL_PROPERTY
Angle
SciTegic.value.DoubleValue
2.660

@<SCITEGIC>MOL_PROPERTY
Pdih
SciTegic.value.DoubleValue
5.064

@<SCITEGIC>MOL_PROPERTY
Idih
SciTegic.value.DoubleValue
0.001

@<SCITEGIC>MOL_PROPERTY
Tether
SciTegic.value.DoubleValue
0.000

@<TRIPOS>MOLECULE
guest-s21_confgen4.mol2 : confsearch ligand conformer 718
          22          21           1
SMALL
USER_CHARGES
 
@<TRIPOS>ATOM
       1    C1      20.636073   19.390907   19.176754 C.2        1 MOL1         0.6145
       2    O1      21.816337   19.632061   19.016246 O.co2      1 MOL1        -0.6735
       3    O2      20.015611   18.592276   18.502819 O.co2      1 MOL1        -0.6735
       4    C2      19.884778   20.148099   20.268363 C.3        1 MOL1        -0.1985
       5    H1      18.942320   20.499813   19.832404 H          1 MOL1         0.0740
       6    H2      20.462533   21.040586   20.537660 H          1 MOL1         0.0740
       7    C3      19.585012   19.302466   21.533563 C.3        1 MOL1        -0.1882
       8    H3      18.914046   19.878544   22.183059 H          1 MOL1         0.0742
       9    H4      19.047510   18.389139   21.243384 H          1 MOL1         0.0742
      10    C4      20.864498   18.933102   22.319418 C.3        1 MOL1        -0.1880
      11    H5      21.349444   19.850827   22.679013 H          1 MOL1         0.0742
      12    H6      21.581074   18.454788   21.637820 H          1 MOL1         0.0742
      13    C5      20.623623   17.975686   23.513511 C.3        1 MOL1        -0.1880
      14    H7      20.224413   17.017674   23.153270 H          1 MOL1         0.0742
      15    H8      21.603421   17.743783   23.952924 H          1 MOL1         0.0742
      16    C6      19.717645   18.548163   24.632161 C.3        1 MOL1        -0.1856
      17    H9      19.785815   19.644553   24.654321 H          1 MOL1         0.0742
      18    H10     20.095715   18.199274   25.603056 H          1 MOL1         0.0742
      19    C7      18.242779   18.105090   24.507705 C.3        1 MOL1        -0.2871
      20    H11     17.795459   18.434798   23.563195 H          1 MOL1         0.0754
      21    H12     17.645161   18.525972   25.326564 H          1 MOL1         0.0754
      22    H13     18.158455   17.011746   24.558438 H          1 MOL1         0.0754
@<TRIPOS>BOND
    1     1     2    1
    2     1     3    2
    3     1     4    1
    4     4     5    1
    5     4     6    1
    6     4     7    1
    7     7     8    1
    8     7     9    1
    9     7    10    1
   10    10    11    1
   11    10    12    1
   12    10    13    1
   13    13    14    1
   14    13    15    1
   15    13    16    1
   16    16    17    1
   17    16    18    1
   18    16    19    1
   19    19    20    1
   20    19    21    1
   21    19    22    1
@<TRIPOS>SUBSTRUCTURE
       1 MOL1            1 RESIDUE      1      MOL     
@<SCITEGIC>MOL_PROPERTY
VConf Rank
SciTegic.value.IntegerValue
718

@<SCITEGIC>MOL_PROPERTY
Conf_Id
SciTegic.value.IntegerValue
82

@<SCITEGIC>MOL_PROPERTY
Delta U+W
SciTegic.value.DoubleValue
3.438

@<SCITEGIC>MOL_PROPERTY
U+W
SciTegic.value.DoubleValue
-49.721

@<SCITEGIC>MOL_PROPERTY
Grad RMS
SciTegic.value.DoubleValue
0.000000

@<SCITEGIC>MOL_PROPERTY
U
SciTegic.value.DoubleValue
11.773

@<SCITEGIC>MOL_PROPERTY
W
SciTegic.value.DoubleValue
-61.495

@<SCITEGIC>MOL_PROPERTY
W(PB)
SciTegic.value.DoubleValue
-63.749

@<SCITEGIC>MOL_PROPERTY
W(SA)
SciTegic.value.DoubleValue
2.254

@<SCITEGIC>MOL_PROPERTY
Valence
SciTegic.value.DoubleValue
10.419

@<SCITEGIC>MOL_PROPERTY
Coulomb
SciTegic.value.DoubleValue
0.565

@<SCITEGIC>MOL_PROPERTY
VdW
SciTegic.value.DoubleValue
0.789

@<SCITEGIC>MOL_PROPERTY
VdW6
SciTegic.value.DoubleValue
-8.847

@<SCITEGIC>MOL_PROPERTY
VdW12
SciTegic.value.DoubleValue
9.636

@<SCITEGIC>MOL_PROPERTY
Bond
SciTegic.value.DoubleValue
0.200

@<SCITEGIC>MOL_PROPERTY
Angle
SciTegic.value.DoubleValue
3.187

@<SCITEGIC>MOL_PROPERTY
Pdih
SciTegic.value.DoubleValue
7.032

@<SCITEGIC>MOL_PROPERTY
Idih
SciTegic.value.DoubleValue
0.001

@<SCITEGIC>MOL_PROPERTY
Tether
SciTegic.value.DoubleValue
0.000

@<TRIPOS>MOLECULE
guest-s21_confgen4.mol2 : confsearch ligand conformer 719
          22          21           1
SMALL
USER_CHARGES
 
@<TRIPOS>ATOM
       1    C1      18.070317   16.214973   23.061549 C.2        1 MOL1         0.6145
       2    O1      17.516109   16.394714   24.128095 O.co2      1 MOL1        -0.6735
       3    O2      17.507702   15.777534   22.077146 O.co2      1 MOL1        -0.6735
       4    C2      19.559317   16.534825   22.961687 C.3        1 MOL1        -0.1985
       5    H1      19.972568   16.013567   22.089696 H          1 MOL1         0.0740
       6    H2      20.045270   16.107356   23.846622 H          1 MOL1         0.0740
       7    C3      19.876921   18.050757   22.879407 C.3        1 MOL1        -0.1882
       8    H3      19.417347   18.566990   23.733557 H          1 MOL1         0.0742
       9    H4      20.962540   18.181626   22.970015 H          1 MOL1         0.0742
      10    C4      19.393753   18.689084   21.556467 C.3        1 MOL1        -0.1880
      11    H5      18.328736   18.460711   21.413549 H          1 MOL1         0.0742
      12    H6      19.922518   18.224799   20.712935 H          1 MOL1         0.0742
      13    C5      19.569037   20.227102   21.490874 C.3        1 MOL1        -0.1880
      14    H7      19.141883   20.567188   20.537592 H          1 MOL1         0.0742
      15    H8      18.968439   20.708191   22.274942 H          1 MOL1         0.0742
      16    C6      21.036980   20.716890   21.562635 C.3        1 MOL1        -0.1856
      17    H9      21.149194   21.587697   20.902028 H          1 MOL1         0.0742
      18    H10     21.715474   19.946865   21.170311 H          1 MOL1         0.0742
      19    C7      21.469432   21.138412   22.984722 C.3        1 MOL1        -0.2871
      20    H11     20.841825   21.958988   23.356007 H          1 MOL1         0.0754
      21    H12     22.510248   21.486999   22.981888 H          1 MOL1         0.0754
      22    H13     21.396361   20.308615   23.696762 H          1 MOL1         0.0754
@<TRIPOS>BOND
    1     1     2    1
    2     1     3    2
    3     1     4    1
    4     4     5    1
    5     4     6    1
    6     4     7    1
    7     7     8    1
    8     7     9    1
    9     7    10    1
   10    10    11    1
   11    10    12    1
   12    10    13    1
   13    13    14    1
   14    13    15    1
   15    13    16    1
   16    16    17    1
   17    16    18    1
   18    16    19    1
   19    19    20    1
   20    19    21    1
   21    19    22    1
@<TRIPOS>SUBSTRUCTURE
       1 MOL1            1 RESIDUE      1      MOL     
@<SCITEGIC>MOL_PROPERTY
VConf Rank
SciTegic.value.IntegerValue
719

@<SCITEGIC>MOL_PROPERTY
Conf_Id
SciTegic.value.IntegerValue
94

@<SCITEGIC>MOL_PROPERTY
Delta U+W
SciTegic.value.DoubleValue
3.471

@<SCITEGIC>MOL_PROPERTY
U+W
SciTegic.value.DoubleValue
-49.688

@<SCITEGIC>MOL_PROPERTY
Grad RMS
SciTegic.value.DoubleValue
0.000000

@<SCITEGIC>MOL_PROPERTY
U
SciTegic.value.DoubleValue
11.773

@<SCITEGIC>MOL_PROPERTY
W
SciTegic.value.DoubleValue
-61.461

@<SCITEGIC>MOL_PROPERTY
W(PB)
SciTegic.value.DoubleValue
-63.710

@<SCITEGIC>MOL_PROPERTY
W(SA)
SciTegic.value.DoubleValue
2.248

@<SCITEGIC>MOL_PROPERTY
Valence
SciTegic.value.DoubleValue
10.419

@<SCITEGIC>MOL_PROPERTY
Coulomb
SciTegic.value.DoubleValue
0.566

@<SCITEGIC>MOL_PROPERTY
VdW
SciTegic.value.DoubleValue
0.789

@<SCITEGIC>MOL_PROPERTY
VdW6
SciTegic.value.DoubleValue
-8.847

@<SCITEGIC>MOL_PROPERTY
VdW12
SciTegic.value.DoubleValue
9.636

@<SCITEGIC>MOL_PROPERTY
Bond
SciTegic.value.DoubleValue
0.200

@<SCITEGIC>MOL_PROPERTY
Angle
SciTegic.value.DoubleValue
3.187

@<SCITEGIC>MOL_PROPERTY
Pdih
SciTegic.value.DoubleValue
7.032

@<SCITEGIC>MOL_PROPERTY
Idih
SciTegic.value.DoubleValue
0.001

@<SCITEGIC>MOL_PROPERTY
Tether
SciTegic.value.DoubleValue
0.000

@<TRIPOS>MOLECULE
guest-s21_confgen4.mol2 : confsearch ligand conformer 720
          22          21           1
SMALL
USER_CHARGES
 
@<TRIPOS>ATOM
       1    C1      17.497958   21.405610   21.850004 C.2        1 MOL1         0.6145
       2    O1      16.297061   21.414282   22.035664 O.co2      1 MOL1        -0.6735
       3    O2      18.049719   22.058445   20.986325 O.co2      1 MOL1        -0.6735
       4    C2      18.356953   20.511690   22.737116 C.3        1 MOL1        -0.1985
       5    H1      17.889671   20.464167   23.727884 H          1 MOL1         0.0740
       6    H2      19.330763   20.999388   22.859096 H          1 MOL1         0.0740
       7    C3      18.532403   19.083449   22.159361 C.3        1 MOL1        -0.1882
       8    H3      17.538670   18.653955   21.971936 H          1 MOL1         0.0742
       9    H4      19.027709   19.140997   21.181001 H          1 MOL1         0.0742
      10    C4      19.314118   18.129155   23.096730 C.3        1 MOL1        -0.1880
      11    H5      19.347589   17.131342   22.639868 H          1 MOL1         0.0742
      12    H6      18.749343   18.009115   24.031163 H          1 MOL1         0.0742
      13    C5      20.756819   18.581139   23.445284 C.3        1 MOL1        -0.1880
      14    H7      20.715079   19.498824   24.046420 H          1 MOL1         0.0742
      15    H8      21.213857   17.822204   24.094651 H          1 MOL1         0.0742
      16    C6      21.684585   18.820078   22.228696 C.3        1 MOL1        -0.1856
      17    H9      22.662919   19.159435   22.595586 H          1 MOL1         0.0742
      18    H10     21.292462   19.637361   21.608784 H          1 MOL1         0.0742
      19    C7      21.889289   17.559530   21.360986 C.3        1 MOL1        -0.2871
      20    H11     22.265991   16.723919   21.964976 H          1 MOL1         0.0754
      21    H12     22.617075   17.756146   20.563230 H          1 MOL1         0.0754
      22    H13     20.951129   17.246133   20.886018 H          1 MOL1         0.0754
@<TRIPOS>BOND
    1     1     2    1
    2     1     3    2
    3     1     4    1
    4     4     5    1
    5     4     6    1
    6     4     7    1
    7     7     8    1
    8     7     9    1
    9     7    10    1
   10    10    11    1
   11    10    12    1
   12    10    13    1
   13    13    14    1
   14    13    15    1
   15    13    16    1
   16    16    17    1
   17    16    18    1
   18    16    19    1
   19    19    20    1
   20    19    21    1
   21    19    22    1
@<TRIPOS>SUBSTRUCTURE
       1 MOL1            1 RESIDUE      1      MOL     
@<SCITEGIC>MOL_PROPERTY
VConf Rank
SciTegic.value.IntegerValue
720

@<SCITEGIC>MOL_PROPERTY
Conf_Id
SciTegic.value.IntegerValue
56

@<SCITEGIC>MOL_PROPERTY
Delta U+W
SciTegic.value.DoubleValue
0.853

@<SCITEGIC>MOL_PROPERTY
U+W
SciTegic.value.DoubleValue
-52.307

@<SCITEGIC>MOL_PROPERTY
Grad RMS
SciTegic.value.DoubleValue
0.000000

@<SCITEGIC>MOL_PROPERTY
U
SciTegic.value.DoubleValue
8.874

@<SCITEGIC>MOL_PROPERTY
W
SciTegic.value.DoubleValue
-61.181

@<SCITEGIC>MOL_PROPERTY
W(PB)
SciTegic.value.DoubleValue
-63.413

@<SCITEGIC>MOL_PROPERTY
W(SA)
SciTegic.value.DoubleValue
2.232

@<SCITEGIC>MOL_PROPERTY
Valence
SciTegic.value.DoubleValue
8.479

@<SCITEGIC>MOL_PROPERTY
Coulomb
SciTegic.value.DoubleValue
-0.357

@<SCITEGIC>MOL_PROPERTY
VdW
SciTegic.value.DoubleValue
0.753

@<SCITEGIC>MOL_PROPERTY
VdW6
SciTegic.value.DoubleValue
-9.081

@<SCITEGIC>MOL_PROPERTY
VdW12
SciTegic.value.DoubleValue
9.833

@<SCITEGIC>MOL_PROPERTY
Bond
SciTegic.value.DoubleValue
0.221

@<SCITEGIC>MOL_PROPERTY
Angle
SciTegic.value.DoubleValue
3.208

@<SCITEGIC>MOL_PROPERTY
Pdih
SciTegic.value.DoubleValue
5.050

@<SCITEGIC>MOL_PROPERTY
Idih
SciTegic.value.DoubleValue
0.000

@<SCITEGIC>MOL_PROPERTY
Tether
SciTegic.value.DoubleValue
0.000

@<TRIPOS>MOLECULE
guest-s21_confgen4.mol2 : confsearch ligand conformer 721
          22          21           1
SMALL
USER_CHARGES
 
@<TRIPOS>ATOM
       1    C1      21.816875   22.363323   23.053589 C.2        1 MOL1         0.6145
       2    O1      21.466917   22.338472   24.217768 O.co2      1 MOL1        -0.6735
       3    O2      22.524230   23.236538   22.591999 O.co2      1 MOL1        -0.6735
       4    C2      21.361266   21.257332   22.100316 C.3        1 MOL1        -0.1985
       5    H1      22.262680   20.796082   21.679994 H          1 MOL1         0.0740
       6    H2      20.830472   21.738884   21.270657 H          1 MOL1         0.0740
       7    C3      20.460529   20.164723   22.735365 C.3        1 MOL1        -0.1882
       8    H3      20.995868   19.690625   23.569711 H          1 MOL1         0.0742
       9    H4      19.562275   20.634243   23.159840 H          1 MOL1         0.0742
      10    C4      20.047962   19.090606   21.705525 C.3        1 MOL1        -0.1880
      11    H5      20.947560   18.622667   21.282574 H          1 MOL1         0.0742
      12    H6      19.513109   19.566941   20.872357 H          1 MOL1         0.0742
      13    C5      19.151979   18.004834   22.339261 C.3        1 MOL1        -0.1880
      14    H7      19.686400   17.528233   23.172550 H          1 MOL1         0.0742
      15    H8      18.252201   18.472314   22.762333 H          1 MOL1         0.0742
      16    C6      18.739369   16.931091   21.310703 C.3        1 MOL1        -0.1856
      17    H9      19.636929   16.459757   20.886784 H          1 MOL1         0.0742
      18    H10     18.202712   17.403911   20.476488 H          1 MOL1         0.0742
      19    C7      17.844700   15.848765   21.947471 C.3        1 MOL1        -0.2871
      20    H11     18.368710   15.337384   22.765585 H          1 MOL1         0.0754
      21    H12     17.560939   15.093953   21.202602 H          1 MOL1         0.0754
      22    H13     16.923726   16.288596   22.352147 H          1 MOL1         0.0754
@<TRIPOS>BOND
    1     1     2    1
    2     1     3    2
    3     1     4    1
    4     4     5    1
    5     4     6    1
    6     4     7    1
    7     7     8    1
    8     7     9    1
    9     7    10    1
   10    10    11    1
   11    10    12    1
   12    10    13    1
   13    13    14    1
   14    13    15    1
   15    13    16    1
   16    16    17    1
   17    16    18    1
   18    16    19    1
   19    19    20    1
   20    19    21    1
   21    19    22    1
@<TRIPOS>SUBSTRUCTURE
       1 MOL1            1 RESIDUE      1      MOL     
@<SCITEGIC>MOL_PROPERTY
VConf Rank
SciTegic.value.IntegerValue
721

@<SCITEGIC>MOL_PROPERTY
Conf_Id
SciTegic.value.IntegerValue
0

@<SCITEGIC>MOL_PROPERTY
Delta U+W
SciTegic.value.DoubleValue
0.000

@<SCITEGIC>MOL_PROPERTY
U+W
SciTegic.value.DoubleValue
-53.159

@<SCITEGIC>MOL_PROPERTY
Grad RMS
SciTegic.value.DoubleValue
0.000000

@<SCITEGIC>MOL_PROPERTY
U
SciTegic.value.DoubleValue
6.763

@<SCITEGIC>MOL_PROPERTY
W
SciTegic.value.DoubleValue
-59.922

@<SCITEGIC>MOL_PROPERTY
W(PB)
SciTegic.value.DoubleValue
-62.256

@<SCITEGIC>MOL_PROPERTY
W(SA)
SciTegic.value.DoubleValue
2.334

@<SCITEGIC>MOL_PROPERTY
Valence
SciTegic.value.DoubleValue
7.600

@<SCITEGIC>MOL_PROPERTY
Coulomb
SciTegic.value.DoubleValue
-2.139

@<SCITEGIC>MOL_PROPERTY
VdW
SciTegic.value.DoubleValue
1.302

@<SCITEGIC>MOL_PROPERTY
VdW6
SciTegic.value.DoubleValue
-6.786

@<SCITEGIC>MOL_PROPERTY
VdW12
SciTegic.value.DoubleValue
8.088

@<SCITEGIC>MOL_PROPERTY
Bond
SciTegic.value.DoubleValue
0.134

@<SCITEGIC>MOL_PROPERTY
Angle
SciTegic.value.DoubleValue
2.720

@<SCITEGIC>MOL_PROPERTY
Pdih
SciTegic.value.DoubleValue
4.746

@<SCITEGIC>MOL_PROPERTY
Idih
SciTegic.value.DoubleValue
0.000

@<SCITEGIC>MOL_PROPERTY
Tether
SciTegic.value.DoubleValue
0.000

@<TRIPOS>MOLECULE
guest-s21_confgen4.mol2 : confsearch ligand conformer 722
          22          21           1
SMALL
USER_CHARGES
 
@<TRIPOS>ATOM
       1    C1      23.467508   19.954059   20.835825 C.2        1 MOL1         0.6145
       2    O1      23.915534   19.192340   20.001865 O.co2      1 MOL1        -0.6735
       3    O2      24.153837   20.542781   21.647483 O.co2      1 MOL1        -0.6735
       4    C2      21.958388   20.165598   20.880766 C.3        1 MOL1        -0.1985
       5    H1      21.571681   20.079704   19.858150 H          1 MOL1         0.0740
       6    H2      21.768111   21.192890   21.214123 H          1 MOL1         0.0740
       7    C3      21.237225   19.159486   21.811203 C.3        1 MOL1        -0.1882
       8    H3      21.448332   18.135834   21.471874 H          1 MOL1         0.0742
       9    H4      21.644755   19.248987   22.827806 H          1 MOL1         0.0742
      10    C4      19.711478   19.394397   21.839371 C.3        1 MOL1        -0.1880
      11    H5      19.307490   19.305441   20.821504 H          1 MOL1         0.0742
      12    H6      19.503961   20.418903   22.177747 H          1 MOL1         0.0742
      13    C5      18.995309   18.390071   22.767662 C.3        1 MOL1        -0.1880
      14    H7      19.202591   17.365431   22.429621 H          1 MOL1         0.0742
      15    H8      19.399029   18.478704   23.785641 H          1 MOL1         0.0742
      16    C6      17.470374   18.624203   22.796345 C.3        1 MOL1        -0.1856
      17    H9      17.062515   18.534363   21.779951 H          1 MOL1         0.0742
      18    H10     17.258945   19.647647   23.135960 H          1 MOL1         0.0742
      19    C7      16.758884   17.619315   23.724420 C.3        1 MOL1        -0.2871
      20    H11     17.125481   17.709247   24.755403 H          1 MOL1         0.0754
      21    H12     16.927721   16.587541   23.389244 H          1 MOL1         0.0754
      22    H13     15.676127   17.800039   23.732768 H          1 MOL1         0.0754
@<TRIPOS>BOND
    1     1     2    1
    2     1     3    2
    3     1     4    1
    4     4     5    1
    5     4     6    1
    6     4     7    1
    7     7     8    1
    8     7     9    1
    9     7    10    1
   10    10    11    1
   11    10    12    1
   12    10    13    1
   13    13    14    1
   14    13    15    1
   15    13    16    1
   16    16    17    1
   17    16    18    1
   18    16    19    1
   19    19    20    1
   20    19    21    1
   21    19    22    1
@<TRIPOS>SUBSTRUCTURE
       1 MOL1            1 RESIDUE      1      MOL     
@<SCITEGIC>MOL_PROPERTY
VConf Rank
SciTegic.value.IntegerValue
722

@<SCITEGIC>MOL_PROPERTY
Conf_Id
SciTegic.value.IntegerValue
10

@<SCITEGIC>MOL_PROPERTY
Delta U+W
SciTegic.value.DoubleValue
-1.291

@<SCITEGIC>MOL_PROPERTY
U+W
SciTegic.value.DoubleValue
-54.451

@<SCITEGIC>MOL_PROPERTY
Grad RMS
SciTegic.value.DoubleValue
0.000000

@<SCITEGIC>MOL_PROPERTY
U
SciTegic.value.DoubleValue
5.779

@<SCITEGIC>MOL_PROPERTY
W
SciTegic.value.DoubleValue
-60.230

@<SCITEGIC>MOL_PROPERTY
W(PB)
SciTegic.value.DoubleValue
-62.557

@<SCITEGIC>MOL_PROPERTY
W(SA)
SciTegic.value.DoubleValue
2.328

@<SCITEGIC>MOL_PROPERTY
Valence
SciTegic.value.DoubleValue
7.101

@<SCITEGIC>MOL_PROPERTY
Coulomb
SciTegic.value.DoubleValue
-2.079

@<SCITEGIC>MOL_PROPERTY
VdW
SciTegic.value.DoubleValue
0.757

@<SCITEGIC>MOL_PROPERTY
VdW6
SciTegic.value.DoubleValue
-6.496

@<SCITEGIC>MOL_PROPERTY
VdW12
SciTegic.value.DoubleValue
7.253

@<SCITEGIC>MOL_PROPERTY
Bond
SciTegic.value.DoubleValue
0.100

@<SCITEGIC>MOL_PROPERTY
Angle
SciTegic.value.DoubleValue
2.262

@<SCITEGIC>MOL_PROPERTY
Pdih
SciTegic.value.DoubleValue
4.738

@<SCITEGIC>MOL_PROPERTY
Idih
SciTegic.value.DoubleValue
0.001

@<SCITEGIC>MOL_PROPERTY
Tether
SciTegic.value.DoubleValue
0.000

@<TRIPOS>MOLECULE
guest-s21_confgen4.mol2 : confsearch ligand conformer 723
          22          21           1
SMALL
USER_CHARGES
 
@<TRIPOS>ATOM
       1    C1      21.057953   19.414837   25.891509 C.2        1 MOL1         0.6145
       2    O1      21.982302   20.197272   25.990630 O.co2      1 MOL1        -0.6735
       3    O2      20.258246   19.201721   26.781176 O.co2      1 MOL1        -0.6735
       4    C2      20.879276   18.675202   24.570440 C.3        1 MOL1        -0.1985
       5    H1      20.452226   17.688660   24.787256 H          1 MOL1         0.0740
       6    H2      21.872300   18.510111   24.135348 H          1 MOL1         0.0740
       7    C3      19.977731   19.439581   23.569894 C.3        1 MOL1        -0.1882
       8    H3      18.992248   19.608442   24.025769 H          1 MOL1         0.0742
       9    H4      20.412146   20.429552   23.372934 H          1 MOL1         0.0742
      10    C4      19.812710   18.670403   22.241181 C.3        1 MOL1        -0.1880
      11    H5      19.376387   17.682177   22.440896 H          1 MOL1         0.0742
      12    H6      20.802793   18.500973   21.798242 H          1 MOL1         0.0742
      13    C5      18.915013   19.439257   21.244554 C.3        1 MOL1        -0.1880
      14    H7      17.954098   19.662634   21.727957 H          1 MOL1         0.0742
      15    H8      19.374449   20.407590   21.003339 H          1 MOL1         0.0742
      16    C6      18.637725   18.658937   19.938599 C.3        1 MOL1        -0.1856
      17    H9      17.903780   19.218768   19.342655 H          1 MOL1         0.0742
      18    H10     18.172281   17.692233   20.175565 H          1 MOL1         0.0742
      19    C7      19.902374   18.430633   19.082592 C.3        1 MOL1        -0.2871
      20    H11     19.639623   17.953805   18.129430 H          1 MOL1         0.0754
      21    H12     20.619814   17.776817   19.593971 H          1 MOL1         0.0754
      22    H13     20.401947   19.382039   18.858116 H          1 MOL1         0.0754
@<TRIPOS>BOND
    1     1     2    1
    2     1     3    2
    3     1     4    1
    4     4     5    1
    5     4     6    1
    6     4     7    1
    7     7     8    1
    8     7     9    1
    9     7    10    1
   10    10    11    1
   11    10    12    1
   12    10    13    1
   13    13    14    1
   14    13    15    1
   15    13    16    1
   16    16    17    1
   17    16    18    1
   18    16    19    1
   19    19    20    1
   20    19    21    1
   21    19    22    1
@<TRIPOS>SUBSTRUCTURE
       1 MOL1            1 RESIDUE      1      MOL     
@<SCITEGIC>MOL_PROPERTY
VConf Rank
SciTegic.value.IntegerValue
723

@<SCITEGIC>MOL_PROPERTY
Conf_Id
SciTegic.value.IntegerValue
37

@<SCITEGIC>MOL_PROPERTY
Delta U+W
SciTegic.value.DoubleValue
-0.345

@<SCITEGIC>MOL_PROPERTY
U+W
SciTegic.value.DoubleValue
-53.504

@<SCITEGIC>MOL_PROPERTY
Grad RMS
SciTegic.value.DoubleValue
0.000000

@<SCITEGIC>MOL_PROPERTY
U
SciTegic.value.DoubleValue
6.751

@<SCITEGIC>MOL_PROPERTY
W
SciTegic.value.DoubleValue
-60.255

@<SCITEGIC>MOL_PROPERTY
W(PB)
SciTegic.value.DoubleValue
-62.592

@<SCITEGIC>MOL_PROPERTY
W(SA)
SciTegic.value.DoubleValue
2.336

@<SCITEGIC>MOL_PROPERTY
Valence
SciTegic.value.DoubleValue
7.602

@<SCITEGIC>MOL_PROPERTY
Coulomb
SciTegic.value.DoubleValue
-1.744

@<SCITEGIC>MOL_PROPERTY
VdW
SciTegic.value.DoubleValue
0.894

@<SCITEGIC>MOL_PROPERTY
VdW6
SciTegic.value.DoubleValue
-7.110

@<SCITEGIC>MOL_PROPERTY
VdW12
SciTegic.value.DoubleValue
8.004

@<SCITEGIC>MOL_PROPERTY
Bond
SciTegic.value.DoubleValue
0.131

@<SCITEGIC>MOL_PROPERTY
Angle
SciTegic.value.DoubleValue
2.489

@<SCITEGIC>MOL_PROPERTY
Pdih
SciTegic.value.DoubleValue
4.982

@<SCITEGIC>MOL_PROPERTY
Idih
SciTegic.value.DoubleValue
0.001

@<SCITEGIC>MOL_PROPERTY
Tether
SciTegic.value.DoubleValue
0.000

@<TRIPOS>MOLECULE
guest-s21_confgen4.mol2 : confsearch ligand conformer 724
          22          21           1
SMALL
USER_CHARGES
 
@<TRIPOS>ATOM
       1    C1      23.036867   21.139570   22.469461 C.2        1 MOL1         0.6145
       2    O1      23.416082   21.279588   23.615342 O.co2      1 MOL1        -0.6735
       3    O2      23.270944   21.934915   21.581153 O.co2      1 MOL1        -0.6735
       4    C2      22.202832   19.908714   22.132426 C.3        1 MOL1        -0.1985
       5    H1      22.538551   19.083941   22.772502 H          1 MOL1         0.0740
       6    H2      22.419542   19.623587   21.095901 H          1 MOL1         0.0740
       7    C3      20.683050   20.142918   22.315634 C.3        1 MOL1        -0.1882
       8    H3      20.484163   20.439505   23.354878 H          1 MOL1         0.0742
       9    H4      20.365867   20.980167   21.678514 H          1 MOL1         0.0742
      10    C4      19.861157   18.882733   21.968107 C.3        1 MOL1        -0.1880
      11    H5      20.190817   18.051364   22.604751 H          1 MOL1         0.0742
      12    H6      20.060247   18.589938   20.928160 H          1 MOL1         0.0742
      13    C5      18.345138   19.120485   22.156321 C.3        1 MOL1        -0.1880
      14    H7      18.136141   19.363832   23.207054 H          1 MOL1         0.0742
      15    H8      18.045304   19.998532   21.568045 H          1 MOL1         0.0742
      16    C6      17.475552   17.918039   21.721286 C.3        1 MOL1        -0.1856
      17    H9      17.677184   17.675727   20.668699 H          1 MOL1         0.0742
      18    H10     16.417772   18.210335   21.775143 H          1 MOL1         0.0742
      19    C7      17.688907   16.661926   22.593565 C.3        1 MOL1        -0.2871
      20    H11     17.522020   16.887558   23.654873 H          1 MOL1         0.0754
      21    H12     18.705162   16.263997   22.481399 H          1 MOL1         0.0754
      22    H13     16.987928   15.868978   22.302389 H          1 MOL1         0.0754
@<TRIPOS>BOND
    1     1     2    1
    2     1     3    2
    3     1     4    1
    4     4     5    1
    5     4     6    1
    6     4     7    1
    7     7     8    1
    8     7     9    1
    9     7    10    1
   10    10    11    1
   11    10    12    1
   12    10    13    1
   13    13    14    1
   14    13    15    1
   15    13    16    1
   16    16    17    1
   17    16    18    1
   18    16    19    1
   19    19    20    1
   20    19    21    1
   21    19    22    1
@<TRIPOS>SUBSTRUCTURE
       1 MOL1            1 RESIDUE      1      MOL     
@<SCITEGIC>MOL_PROPERTY
VConf Rank
SciTegic.value.IntegerValue
724

@<SCITEGIC>MOL_PROPERTY
Conf_Id
SciTegic.value.IntegerValue
38

@<SCITEGIC>MOL_PROPERTY
Delta U+W
SciTegic.value.DoubleValue
-0.439

@<SCITEGIC>MOL_PROPERTY
U+W
SciTegic.value.DoubleValue
-53.598

@<SCITEGIC>MOL_PROPERTY
Grad RMS
SciTegic.value.DoubleValue
0.000000

@<SCITEGIC>MOL_PROPERTY
U
SciTegic.value.DoubleValue
6.751

@<SCITEGIC>MOL_PROPERTY
W
SciTegic.value.DoubleValue
-60.350

@<SCITEGIC>MOL_PROPERTY
W(PB)
SciTegic.value.DoubleValue
-62.659

@<SCITEGIC>MOL_PROPERTY
W(SA)
SciTegic.value.DoubleValue
2.309

@<SCITEGIC>MOL_PROPERTY
Valence
SciTegic.value.DoubleValue
7.602

@<SCITEGIC>MOL_PROPERTY
Coulomb
SciTegic.value.DoubleValue
-1.744

@<SCITEGIC>MOL_PROPERTY
VdW
SciTegic.value.DoubleValue
0.893

@<SCITEGIC>MOL_PROPERTY
VdW6
SciTegic.value.DoubleValue
-7.110

@<SCITEGIC>MOL_PROPERTY
VdW12
SciTegic.value.DoubleValue
8.004

@<SCITEGIC>MOL_PROPERTY
Bond
SciTegic.value.DoubleValue
0.131

@<SCITEGIC>MOL_PROPERTY
Angle
SciTegic.value.DoubleValue
2.489

@<SCITEGIC>MOL_PROPERTY
Pdih
SciTegic.value.DoubleValue
4.981

@<SCITEGIC>MOL_PROPERTY
Idih
SciTegic.value.DoubleValue
0.001

@<SCITEGIC>MOL_PROPERTY
Tether
SciTegic.value.DoubleValue
0.000

@<TRIPOS>MOLECULE
guest-s21_confgen4.mol2 : confsearch ligand conformer 725
          22          21           1
SMALL
USER_CHARGES
 
@<TRIPOS>ATOM
       1    C1      20.115465   18.382805   18.519435 C.2        1 MOL1         0.6145
       2    O1      20.803502   19.045146   17.768123 O.co2      1 MOL1        -0.6735
       3    O2      19.178007   17.703601   18.150127 O.co2      1 MOL1        -0.6735
       4    C2      20.431940   18.424208   20.010213 C.3        1 MOL1        -0.1985
       5    H1      21.513522   18.564074   20.124380 H          1 MOL1         0.0740
       6    H2      20.184347   17.442892   20.429948 H          1 MOL1         0.0740
       7    C3      19.665531   19.548433   20.754757 C.3        1 MOL1        -0.1882
       8    H3      19.861225   20.502677   20.246260 H          1 MOL1         0.0742
       9    H4      18.584083   19.371187   20.675085 H          1 MOL1         0.0742
      10    C4      20.064067   19.691128   22.243222 C.3        1 MOL1        -0.1880
      11    H5      19.579744   20.592761   22.639223 H          1 MOL1         0.0742
      12    H6      21.146829   19.859787   22.319698 H          1 MOL1         0.0742
      13    C5      19.662826   18.470351   23.107357 C.3        1 MOL1        -0.1880
      14    H7      18.580307   18.300733   23.029357 H          1 MOL1         0.0742
      15    H8      20.148864   17.568482   22.714318 H          1 MOL1         0.0742
      16    C6      20.057423   18.615336   24.595775 C.3        1 MOL1        -0.1856
      17    H9      21.138043   18.796657   24.677477 H          1 MOL1         0.0742
      18    H10     19.864023   17.661090   25.104947 H          1 MOL1         0.0742
      19    C7      19.285120   19.732938   25.330056 C.3        1 MOL1        -0.2871
      20    H11     19.540232   20.724040   24.935014 H          1 MOL1         0.0754
      21    H12     19.530907   19.729490   26.399867 H          1 MOL1         0.0754
      22    H13     18.200954   19.591021   25.232234 H          1 MOL1         0.0754
@<TRIPOS>BOND
    1     1     2    1
    2     1     3    2
    3     1     4    1
    4     4     5    1
    5     4     6    1
    6     4     7    1
    7     7     8    1
    8     7     9    1
    9     7    10    1
   10    10    11    1
   11    10    12    1
   12    10    13    1
   13    13    14    1
   14    13    15    1
   15    13    16    1
   16    16    17    1
   17    16    18    1
   18    16    19    1
   19    19    20    1
   20    19    21    1
   21    19    22    1
@<TRIPOS>SUBSTRUCTURE
       1 MOL1            1 RESIDUE      1      MOL     
@<SCITEGIC>MOL_PROPERTY
VConf Rank
SciTegic.value.IntegerValue
725

@<SCITEGIC>MOL_PROPERTY
Conf_Id
SciTegic.value.IntegerValue
60

@<SCITEGIC>MOL_PROPERTY
Delta U+W
SciTegic.value.DoubleValue
0.386

@<SCITEGIC>MOL_PROPERTY
U+W
SciTegic.value.DoubleValue
-52.773

@<SCITEGIC>MOL_PROPERTY
Grad RMS
SciTegic.value.DoubleValue
0.000000

@<SCITEGIC>MOL_PROPERTY
U
SciTegic.value.DoubleValue
7.689

@<SCITEGIC>MOL_PROPERTY
W
SciTegic.value.DoubleValue
-60.463

@<SCITEGIC>MOL_PROPERTY
W(PB)
SciTegic.value.DoubleValue
-62.772

@<SCITEGIC>MOL_PROPERTY
W(SA)
SciTegic.value.DoubleValue
2.309

@<SCITEGIC>MOL_PROPERTY
Valence
SciTegic.value.DoubleValue
8.197

@<SCITEGIC>MOL_PROPERTY
Coulomb
SciTegic.value.DoubleValue
-1.561

@<SCITEGIC>MOL_PROPERTY
VdW
SciTegic.value.DoubleValue
1.053

@<SCITEGIC>MOL_PROPERTY
VdW6
SciTegic.value.DoubleValue
-7.737

@<SCITEGIC>MOL_PROPERTY
VdW12
SciTegic.value.DoubleValue
8.790

@<SCITEGIC>MOL_PROPERTY
Bond
SciTegic.value.DoubleValue
0.181

@<SCITEGIC>MOL_PROPERTY
Angle
SciTegic.value.DoubleValue
2.780

@<SCITEGIC>MOL_PROPERTY
Pdih
SciTegic.value.DoubleValue
5.235

@<SCITEGIC>MOL_PROPERTY
Idih
SciTegic.value.DoubleValue
0.001

@<SCITEGIC>MOL_PROPERTY
Tether
SciTegic.value.DoubleValue
0.000

@<TRIPOS>MOLECULE
guest-s21_confgen4.mol2 : confsearch ligand conformer 726
          22          21           1
SMALL
USER_CHARGES
 
@<TRIPOS>ATOM
       1    C1      20.138572   18.330326   18.521599 C.2        1 MOL1         0.6145
       2    O1      20.430883   17.169817   18.311106 O.co2      1 MOL1        -0.6735
       3    O2      20.277711   19.218087   17.703626 O.co2      1 MOL1        -0.6735
       4    C2      19.588077   18.696797   19.895259 C.3        1 MOL1        -0.1985
       5    H1      19.004722   17.843268   20.258092 H          1 MOL1         0.0740
       6    H2      18.894009   19.536494   19.770388 H          1 MOL1         0.0740
       7    C3      20.702349   19.069683   20.907666 C.3        1 MOL1        -0.1882
       8    H3      21.362992   18.205399   21.062136 H          1 MOL1         0.0742
       9    H4      21.325308   19.860991   20.468120 H          1 MOL1         0.0742
      10    C4      20.162562   19.565795   22.270465 C.3        1 MOL1        -0.1880
      11    H5      19.496175   20.424517   22.111739 H          1 MOL1         0.0742
      12    H6      21.012602   19.935677   22.857787 H          1 MOL1         0.0742
      13    C5      19.420458   18.469751   23.074198 C.3        1 MOL1        -0.1880
      14    H7      18.568284   18.101187   22.489357 H          1 MOL1         0.0742
      15    H8      20.086349   17.610310   23.231211 H          1 MOL1         0.0742
      16    C6      18.885107   18.964867   24.438152 C.3        1 MOL1        -0.1856
      17    H9      18.260173   18.175267   24.877738 H          1 MOL1         0.0742
      18    H10     18.227513   19.831944   24.286359 H          1 MOL1         0.0742
      19    C7      20.001643   19.327656   25.441340 C.3        1 MOL1        -0.2871
      20    H11     20.691956   18.485817   25.582402 H          1 MOL1         0.0754
      21    H12     19.571321   19.578946   26.419396 H          1 MOL1         0.0754
      22    H13     20.580687   20.195284   25.101699 H          1 MOL1         0.0754
@<TRIPOS>BOND
    1     1     2    1
    2     1     3    2
    3     1     4    1
    4     4     5    1
    5     4     6    1
    6     4     7    1
    7     7     8    1
    8     7     9    1
    9     7    10    1
   10    10    11    1
   11    10    12    1
   12    10    13    1
   13    13    14    1
   14    13    15    1
   15    13    16    1
   16    16    17    1
   17    16    18    1
   18    16    19    1
   19    19    20    1
   20    19    21    1
   21    19    22    1
@<TRIPOS>SUBSTRUCTURE
       1 MOL1            1 RESIDUE      1      MOL     
@<SCITEGIC>MOL_PROPERTY
VConf Rank
SciTegic.value.IntegerValue
726

@<SCITEGIC>MOL_PROPERTY
Conf_Id
SciTegic.value.IntegerValue
28

@<SCITEGIC>MOL_PROPERTY
Delta U+W
SciTegic.value.DoubleValue
0.351

@<SCITEGIC>MOL_PROPERTY
U+W
SciTegic.value.DoubleValue
-52.808

@<SCITEGIC>MOL_PROPERTY
Grad RMS
SciTegic.value.DoubleValue
0.000000

@<SCITEGIC>MOL_PROPERTY
U
SciTegic.value.DoubleValue
7.689

@<SCITEGIC>MOL_PROPERTY
W
SciTegic.value.DoubleValue
-60.498

@<SCITEGIC>MOL_PROPERTY
W(PB)
SciTegic.value.DoubleValue
-62.768

@<SCITEGIC>MOL_PROPERTY
W(SA)
SciTegic.value.DoubleValue
2.270

@<SCITEGIC>MOL_PROPERTY
Valence
SciTegic.value.DoubleValue
8.197

@<SCITEGIC>MOL_PROPERTY
Coulomb
SciTegic.value.DoubleValue
-1.561

@<SCITEGIC>MOL_PROPERTY
VdW
SciTegic.value.DoubleValue
1.053

@<SCITEGIC>MOL_PROPERTY
VdW6
SciTegic.value.DoubleValue
-7.737

@<SCITEGIC>MOL_PROPERTY
VdW12
SciTegic.value.DoubleValue
8.791

@<SCITEGIC>MOL_PROPERTY
Bond
SciTegic.value.DoubleValue
0.181

@<SCITEGIC>MOL_PROPERTY
Angle
SciTegic.value.DoubleValue
2.780

@<SCITEGIC>MOL_PROPERTY
Pdih
SciTegic.value.DoubleValue
5.235

@<SCITEGIC>MOL_PROPERTY
Idih
SciTegic.value.DoubleValue
0.001

@<SCITEGIC>MOL_PROPERTY
Tether
SciTegic.value.DoubleValue
0.000

@<TRIPOS>MOLECULE
guest-s21_confgen4.mol2 : confsearch ligand conformer 727
          22          21           1
SMALL
USER_CHARGES
 
@<TRIPOS>ATOM
       1    C1      23.097731   19.845355   23.968650 C.2        1 MOL1         0.6145
       2    O1      23.000668   20.483160   24.998337 O.co2      1 MOL1        -0.6735
       3    O2      23.883356   18.931273   23.814686 O.co2      1 MOL1        -0.6735
       4    C2      22.168587   20.198588   22.812693 C.3        1 MOL1        -0.1985
       5    H1      22.699739   19.996974   21.874674 H          1 MOL1         0.0740
       6    H2      21.973784   21.277147   22.849809 H          1 MOL1         0.0740
       7    C3      20.835062   19.412113   22.850833 C.3        1 MOL1        -0.1882
       8    H3      21.056965   18.336979   22.833099 H          1 MOL1         0.0742
       9    H4      20.319877   19.617583   23.799343 H          1 MOL1         0.0742
      10    C4      19.914926   19.786030   21.665676 C.3        1 MOL1        -0.1880
      11    H5      20.409024   19.531618   20.717979 H          1 MOL1         0.0742
      12    H6      19.768397   20.874801   21.657336 H          1 MOL1         0.0742
      13    C5      18.526704   19.105650   21.724713 C.3        1 MOL1        -0.1880
      14    H7      18.030566   19.363093   22.670494 H          1 MOL1         0.0742
      15    H8      17.901166   19.521226   20.922887 H          1 MOL1         0.0742
      16    C6      18.585944   17.569259   21.568873 C.3        1 MOL1        -0.1856
      17    H9      19.141894   17.125124   22.404949 H          1 MOL1         0.0742
      18    H10     19.128550   17.310612   20.649152 H          1 MOL1         0.0742
      19    C7      17.174104   16.951064   21.521371 C.3        1 MOL1        -0.2871
      20    H11     16.600751   17.344626   20.671824 H          1 MOL1         0.0754
      21    H12     16.618085   17.171442   22.442057 H          1 MOL1         0.0754
      22    H13     17.233016   15.860175   21.413855 H          1 MOL1         0.0754
@<TRIPOS>BOND
    1     1     2    1
    2     1     3    2
    3     1     4    1
    4     4     5    1
    5     4     6    1
    6     4     7    1
    7     7     8    1
    8     7     9    1
    9     7    10    1
   10    10    11    1
   11    10    12    1
   12    10    13    1
   13    13    14    1
   14    13    15    1
   15    13    16    1
   16    16    17    1
   17    16    18    1
   18    16    19    1
   19    19    20    1
   20    19    21    1
   21    19    22    1
@<TRIPOS>SUBSTRUCTURE
       1 MOL1            1 RESIDUE      1      MOL     
@<SCITEGIC>MOL_PROPERTY
VConf Rank
SciTegic.value.IntegerValue
727

@<SCITEGIC>MOL_PROPERTY
Conf_Id
SciTegic.value.IntegerValue
50

@<SCITEGIC>MOL_PROPERTY
Delta U+W
SciTegic.value.DoubleValue
-0.486

@<SCITEGIC>MOL_PROPERTY
U+W
SciTegic.value.DoubleValue
-53.646

@<SCITEGIC>MOL_PROPERTY
Grad RMS
SciTegic.value.DoubleValue
0.000000

@<SCITEGIC>MOL_PROPERTY
U
SciTegic.value.DoubleValue
7.026

@<SCITEGIC>MOL_PROPERTY
W
SciTegic.value.DoubleValue
-60.672

@<SCITEGIC>MOL_PROPERTY
W(PB)
SciTegic.value.DoubleValue
-62.964

@<SCITEGIC>MOL_PROPERTY
W(SA)
SciTegic.value.DoubleValue
2.292

@<SCITEGIC>MOL_PROPERTY
Valence
SciTegic.value.DoubleValue
7.637

@<SCITEGIC>MOL_PROPERTY
Coulomb
SciTegic.value.DoubleValue
-1.488

@<SCITEGIC>MOL_PROPERTY
VdW
SciTegic.value.DoubleValue
0.877

@<SCITEGIC>MOL_PROPERTY
VdW6
SciTegic.value.DoubleValue
-7.165

@<SCITEGIC>MOL_PROPERTY
VdW12
SciTegic.value.DoubleValue
8.043

@<SCITEGIC>MOL_PROPERTY
Bond
SciTegic.value.DoubleValue
0.134

@<SCITEGIC>MOL_PROPERTY
Angle
SciTegic.value.DoubleValue
2.513

@<SCITEGIC>MOL_PROPERTY
Pdih
SciTegic.value.DoubleValue
4.990

@<SCITEGIC>MOL_PROPERTY
Idih
SciTegic.value.DoubleValue
0.001

@<SCITEGIC>MOL_PROPERTY
Tether
SciTegic.value.DoubleValue
0.000

@<TRIPOS>MOLECULE
guest-s21_confgen4.mol2 : confsearch ligand conformer 728
          22          21           1
SMALL
USER_CHARGES
 
@<TRIPOS>ATOM
       1    C1      17.620037   16.220251   23.536955 C.2        1 MOL1         0.6145
       2    O1      16.631608   15.939878   22.888209 O.co2      1 MOL1        -0.6735
       3    O2      17.635628   16.273445   24.750785 O.co2      1 MOL1        -0.6735
       4    C2      18.906674   16.543128   22.785526 C.3        1 MOL1        -0.1985
       5    H1      18.925408   15.941963   21.868540 H          1 MOL1         0.0740
       6    H2      19.752702   16.218826   23.403356 H          1 MOL1         0.0740
       7    C3      19.041716   18.047236   22.442422 C.3        1 MOL1        -0.1882
       8    H3      18.183027   18.358359   21.831555 H          1 MOL1         0.0742
       9    H4      19.000141   18.628261   23.373094 H          1 MOL1         0.0742
      10    C4      20.356358   18.346722   21.685393 C.3        1 MOL1        -0.1880
      11    H5      20.413113   17.699928   20.799165 H          1 MOL1         0.0742
      12    H6      21.216070   18.084499   22.317154 H          1 MOL1         0.0742
      13    C5      20.481375   19.818749   21.225969 C.3        1 MOL1        -0.1880
      14    H7      21.375265   19.911287   20.594049 H          1 MOL1         0.0742
      15    H8      19.623885   20.080213   20.590927 H          1 MOL1         0.0742
      16    C6      20.588549   20.822795   22.395881 C.3        1 MOL1        -0.1856
      17    H9      21.413494   20.531026   23.060367 H          1 MOL1         0.0742
      18    H10     19.670096   20.802990   22.997057 H          1 MOL1         0.0742
      19    C7      20.824009   22.259550   21.887932 C.3        1 MOL1        -0.2871
      20    H11     19.999085   22.587460   21.241898 H          1 MOL1         0.0754
      21    H12     21.757027   22.325563   21.313060 H          1 MOL1         0.0754
      22    H13     20.894601   22.960628   22.729701 H          1 MOL1         0.0754
@<TRIPOS>BOND
    1     1     2    1
    2     1     3    2
    3     1     4    1
    4     4     5    1
    5     4     6    1
    6     4     7    1
    7     7     8    1
    8     7     9    1
    9     7    10    1
   10    10    11    1
   11    10    12    1
   12    10    13    1
   13    13    14    1
   14    13    15    1
   15    13    16    1
   16    16    17    1
   17    16    18    1
   18    16    19    1
   19    19    20    1
   20    19    21    1
   21    19    22    1
@<TRIPOS>SUBSTRUCTURE
       1 MOL1            1 RESIDUE      1      MOL     
@<SCITEGIC>MOL_PROPERTY
VConf Rank
SciTegic.value.IntegerValue
728

@<SCITEGIC>MOL_PROPERTY
Conf_Id
SciTegic.value.IntegerValue
51

@<SCITEGIC>MOL_PROPERTY
Delta U+W
SciTegic.value.DoubleValue
-0.517

@<SCITEGIC>MOL_PROPERTY
U+W
SciTegic.value.DoubleValue
-53.677

@<SCITEGIC>MOL_PROPERTY
Grad RMS
SciTegic.value.DoubleValue
0.000000

@<SCITEGIC>MOL_PROPERTY
U
SciTegic.value.DoubleValue
7.026

@<SCITEGIC>MOL_PROPERTY
W
SciTegic.value.DoubleValue
-60.703

@<SCITEGIC>MOL_PROPERTY
W(PB)
SciTegic.value.DoubleValue
-63.007

@<SCITEGIC>MOL_PROPERTY
W(SA)
SciTegic.value.DoubleValue
2.304

@<SCITEGIC>MOL_PROPERTY
Valence
SciTegic.value.DoubleValue
7.638

@<SCITEGIC>MOL_PROPERTY
Coulomb
SciTegic.value.DoubleValue
-1.488

@<SCITEGIC>MOL_PROPERTY
VdW
SciTegic.value.DoubleValue
0.877

@<SCITEGIC>MOL_PROPERTY
VdW6
SciTegic.value.DoubleValue
-7.165

@<SCITEGIC>MOL_PROPERTY
VdW12
SciTegic.value.DoubleValue
8.042

@<SCITEGIC>MOL_PROPERTY
Bond
SciTegic.value.DoubleValue
0.134

@<SCITEGIC>MOL_PROPERTY
Angle
SciTegic.value.DoubleValue
2.513

@<SCITEGIC>MOL_PROPERTY
Pdih
SciTegic.value.DoubleValue
4.990

@<SCITEGIC>MOL_PROPERTY
Idih
SciTegic.value.DoubleValue
0.001

@<SCITEGIC>MOL_PROPERTY
Tether
SciTegic.value.DoubleValue
0.000

@<TRIPOS>MOLECULE
guest-s21_confgen4.mol2 : confsearch ligand conformer 729
          22          21           1
SMALL
USER_CHARGES
 
@<TRIPOS>ATOM
       1    C1      19.254466   21.594134   20.333046 C.2        1 MOL1         0.6145
       2    O1      20.230733   22.271228   20.077415 O.co2      1 MOL1        -0.6735
       3    O2      18.594457   21.020436   19.489215 O.co2      1 MOL1        -0.6735
       4    C2      18.824537   21.474647   21.792504 C.3        1 MOL1        -0.1985
       5    H1      17.779352   21.143713   21.823742 H          1 MOL1         0.0740
       6    H2      18.851733   22.481388   22.225835 H          1 MOL1         0.0740
       7    C3      19.712848   20.523566   22.635914 C.3        1 MOL1        -0.1882
       8    H3      20.759819   20.851307   22.571961 H          1 MOL1         0.0742
       9    H4      19.420007   20.604956   23.691453 H          1 MOL1         0.0742
      10    C4      19.597587   19.049369   22.187533 C.3        1 MOL1        -0.1880
      11    H5      19.905450   18.956952   21.136777 H          1 MOL1         0.0742
      12    H6      18.547530   18.730679   22.240744 H          1 MOL1         0.0742
      13    C5      20.465129   18.116900   23.060071 C.3        1 MOL1        -0.1880
      14    H7      21.515014   18.436210   23.006309 H          1 MOL1         0.0742
      15    H8      20.157254   18.205367   24.110996 H          1 MOL1         0.0742
      16    C6      20.351143   16.644609   22.612394 C.3        1 MOL1        -0.1856
      17    H9      20.660074   16.551933   21.561930 H          1 MOL1         0.0742
      18    H10     19.302390   16.321101   22.666448 H          1 MOL1         0.0742
      19    C7      21.219285   15.716554   23.485550 C.3        1 MOL1        -0.2871
      20    H11     22.278713   15.998279   23.425181 H          1 MOL1         0.0754
      21    H12     21.126283   14.674371   23.153449 H          1 MOL1         0.0754
      22    H13     20.910829   15.765728   24.538086 H          1 MOL1         0.0754
@<TRIPOS>BOND
    1     1     2    1
    2     1     3    2
    3     1     4    1
    4     4     5    1
    5     4     6    1
    6     4     7    1
    7     7     8    1
    8     7     9    1
    9     7    10    1
   10    10    11    1
   11    10    12    1
   12    10    13    1
   13    13    14    1
   14    13    15    1
   15    13    16    1
   16    16    17    1
   17    16    18    1
   18    16    19    1
   19    19    20    1
   20    19    21    1
   21    19    22    1
@<TRIPOS>SUBSTRUCTURE
       1 MOL1            1 RESIDUE      1      MOL     
@<SCITEGIC>MOL_PROPERTY
VConf Rank
SciTegic.value.IntegerValue
729

@<SCITEGIC>MOL_PROPERTY
Conf_Id
SciTegic.value.IntegerValue
43

@<SCITEGIC>MOL_PROPERTY
Delta U+W
SciTegic.value.DoubleValue
-0.129

@<SCITEGIC>MOL_PROPERTY
U+W
SciTegic.value.DoubleValue
-53.289

@<SCITEGIC>MOL_PROPERTY
Grad RMS
SciTegic.value.DoubleValue
0.000000

@<SCITEGIC>MOL_PROPERTY
U
SciTegic.value.DoubleValue
7.937

@<SCITEGIC>MOL_PROPERTY
W
SciTegic.value.DoubleValue
-61.225

@<SCITEGIC>MOL_PROPERTY
W(PB)
SciTegic.value.DoubleValue
-63.523

@<SCITEGIC>MOL_PROPERTY
W(SA)
SciTegic.value.DoubleValue
2.297

@<SCITEGIC>MOL_PROPERTY
Valence
SciTegic.value.DoubleValue
7.358

@<SCITEGIC>MOL_PROPERTY
Coulomb
SciTegic.value.DoubleValue
-0.022

@<SCITEGIC>MOL_PROPERTY
VdW
SciTegic.value.DoubleValue
0.601

@<SCITEGIC>MOL_PROPERTY
VdW6
SciTegic.value.DoubleValue
-7.363

@<SCITEGIC>MOL_PROPERTY
VdW12
SciTegic.value.DoubleValue
7.964

@<SCITEGIC>MOL_PROPERTY
Bond
SciTegic.value.DoubleValue
0.121

@<SCITEGIC>MOL_PROPERTY
Angle
SciTegic.value.DoubleValue
2.425

@<SCITEGIC>MOL_PROPERTY
Pdih
SciTegic.value.DoubleValue
4.811

@<SCITEGIC>MOL_PROPERTY
Idih
SciTegic.value.DoubleValue
0.000

@<SCITEGIC>MOL_PROPERTY
Tether
SciTegic.value.DoubleValue
0.000

@<TRIPOS>MOLECULE
guest-s21_confgen4.mol2 : confsearch ligand conformer 730
          22          21           1
SMALL
USER_CHARGES
 
@<TRIPOS>ATOM
       1    C1      20.952110   16.270240   20.736602 C.2        1 MOL1         0.6145
       2    O1      22.115788   16.045229   21.005165 O.co2      1 MOL1        -0.6735
       3    O2      20.556730   16.517342   19.614368 O.co2      1 MOL1        -0.6735
       4    C2      19.930405   16.221183   21.869228 C.3        1 MOL1        -0.1985
       5    H1      20.133668   15.317144   22.455265 H          1 MOL1         0.0740
       6    H2      18.930950   16.099497   21.434273 H          1 MOL1         0.0740
       7    C3      19.961679   17.460411   22.801073 C.3        1 MOL1        -0.1882
       8    H3      19.298623   17.278934   23.657790 H          1 MOL1         0.0742
       9    H4      20.975395   17.585343   23.206568 H          1 MOL1         0.0742
      10    C4      19.522215   18.755686   22.082240 C.3        1 MOL1        -0.1880
      11    H5      18.513802   18.621119   21.667501 H          1 MOL1         0.0742
      12    H6      20.191666   18.953385   21.233618 H          1 MOL1         0.0742
      13    C5      19.530647   19.969793   23.035828 C.3        1 MOL1        -0.1880
      14    H7      18.859687   19.775697   23.883884 H          1 MOL1         0.0742
      15    H8      20.539382   20.103724   23.450104 H          1 MOL1         0.0742
      16    C6      19.092621   21.263850   22.318472 C.3        1 MOL1        -0.1856
      17    H9      18.083180   21.134213   21.904121 H          1 MOL1         0.0742
      18    H10     19.762737   21.462232   21.470479 H          1 MOL1         0.0742
      19    C7      19.102870   22.474173   23.273653 C.3        1 MOL1        -0.2871
      20    H11     18.416461   22.315770   24.115761 H          1 MOL1         0.0754
      21    H12     18.789094   23.385017   22.747351 H          1 MOL1         0.0754
      22    H13     20.108676   22.646255   23.678799 H          1 MOL1         0.0754
@<TRIPOS>BOND
    1     1     2    1
    2     1     3    2
    3     1     4    1
    4     4     5    1
    5     4     6    1
    6     4     7    1
    7     7     8    1
    8     7     9    1
    9     7    10    1
   10    10    11    1
   11    10    12    1
   12    10    13    1
   13    13    14    1
   14    13    15    1
   15    13    16    1
   16    16    17    1
   17    16    18    1
   18    16    19    1
   19    19    20    1
   20    19    21    1
   21    19    22    1
@<TRIPOS>SUBSTRUCTURE
       1 MOL1            1 RESIDUE      1      MOL     
@<SCITEGIC>MOL_PROPERTY
VConf Rank
SciTegic.value.IntegerValue
730

@<SCITEGIC>MOL_PROPERTY
Conf_Id
SciTegic.value.IntegerValue
44

@<SCITEGIC>MOL_PROPERTY
Delta U+W
SciTegic.value.DoubleValue
-0.155

@<SCITEGIC>MOL_PROPERTY
U+W
SciTegic.value.DoubleValue
-53.314

@<SCITEGIC>MOL_PROPERTY
Grad RMS
SciTegic.value.DoubleValue
0.000000

@<SCITEGIC>MOL_PROPERTY
U
SciTegic.value.DoubleValue
7.937

@<SCITEGIC>MOL_PROPERTY
W
SciTegic.value.DoubleValue
-61.252

@<SCITEGIC>MOL_PROPERTY
W(PB)
SciTegic.value.DoubleValue
-63.556

@<SCITEGIC>MOL_PROPERTY
W(SA)
SciTegic.value.DoubleValue
2.304

@<SCITEGIC>MOL_PROPERTY
Valence
SciTegic.value.DoubleValue
7.358

@<SCITEGIC>MOL_PROPERTY
Coulomb
SciTegic.value.DoubleValue
-0.021

@<SCITEGIC>MOL_PROPERTY
VdW
SciTegic.value.DoubleValue
0.600

@<SCITEGIC>MOL_PROPERTY
VdW6
SciTegic.value.DoubleValue
-7.363

@<SCITEGIC>MOL_PROPERTY
VdW12
SciTegic.value.DoubleValue
7.964

@<SCITEGIC>MOL_PROPERTY
Bond
SciTegic.value.DoubleValue
0.121

@<SCITEGIC>MOL_PROPERTY
Angle
SciTegic.value.DoubleValue
2.425

@<SCITEGIC>MOL_PROPERTY
Pdih
SciTegic.value.DoubleValue
4.811

@<SCITEGIC>MOL_PROPERTY
Idih
SciTegic.value.DoubleValue
0.001

@<SCITEGIC>MOL_PROPERTY
Tether
SciTegic.value.DoubleValue
0.000

@<TRIPOS>MOLECULE
guest-s21_confgen4.mol2 : confsearch ligand conformer 731
          22          21           1
SMALL
USER_CHARGES
 
@<TRIPOS>ATOM
       1    C1      22.260091   18.690000   19.842924 C.2        1 MOL1         0.6145
       2    O1      23.287034   18.242346   20.314005 O.co2      1 MOL1        -0.6735
       3    O2      22.218295   19.682993   19.143578 O.co2      1 MOL1        -0.6735
       4    C2      20.955374   17.952346   20.130831 C.3        1 MOL1        -0.1985
       5    H1      21.142340   16.883629   19.972972 H          1 MOL1         0.0740
       6    H2      20.208824   18.257106   19.387411 H          1 MOL1         0.0740
       7    C3      20.405595   18.175132   21.563917 C.3        1 MOL1        -0.1882
       8    H3      19.563153   17.490207   21.723083 H          1 MOL1         0.0742
       9    H4      21.178471   17.903748   22.296320 H          1 MOL1         0.0742
      10    C4      19.944749   19.633080   21.803121 C.3        1 MOL1        -0.1880
      11    H5      19.142544   19.888812   21.097522 H          1 MOL1         0.0742
      12    H6      20.777865   20.314920   21.584024 H          1 MOL1         0.0742
      13    C5      19.466855   19.899245   23.250393 C.3        1 MOL1        -0.1880
      14    H7      20.269308   19.643168   23.955667 H          1 MOL1         0.0742
      15    H8      19.286318   20.976947   23.363826 H          1 MOL1         0.0742
      16    C6      18.178168   19.133466   23.626283 C.3        1 MOL1        -0.1856
      17    H9      18.358861   18.050987   23.597922 H          1 MOL1         0.0742
      18    H10     17.391711   19.347221   22.889405 H          1 MOL1         0.0742
      19    C7      17.680377   19.521252   25.033254 C.3        1 MOL1        -0.2871
      20    H11     18.437978   19.292716   25.794303 H          1 MOL1         0.0754
      21    H12     16.767286   18.967128   25.286777 H          1 MOL1         0.0754
      22    H13     17.451860   20.593702   25.087909 H          1 MOL1         0.0754
@<TRIPOS>BOND
    1     1     2    1
    2     1     3    2
    3     1     4    1
    4     4     5    1
    5     4     6    1
    6     4     7    1
    7     7     8    1
    8     7     9    1
    9     7    10    1
   10    10    11    1
   11    10    12    1
   12    10    13    1
   13    13    14    1
   14    13    15    1
   15    13    16    1
   16    16    17    1
   17    16    18    1
   18    16    19    1
   19    19    20    1
   20    19    21    1
   21    19    22    1
@<TRIPOS>SUBSTRUCTURE
       1 MOL1            1 RESIDUE      1      MOL     
@<SCITEGIC>MOL_PROPERTY
VConf Rank
SciTegic.value.IntegerValue
731

@<SCITEGIC>MOL_PROPERTY
Conf_Id
SciTegic.value.IntegerValue
53

@<SCITEGIC>MOL_PROPERTY
Delta U+W
SciTegic.value.DoubleValue
0.723

@<SCITEGIC>MOL_PROPERTY
U+W
SciTegic.value.DoubleValue
-52.436

@<SCITEGIC>MOL_PROPERTY
Grad RMS
SciTegic.value.DoubleValue
0.000000

@<SCITEGIC>MOL_PROPERTY
U
SciTegic.value.DoubleValue
8.587

@<SCITEGIC>MOL_PROPERTY
W
SciTegic.value.DoubleValue
-61.022

@<SCITEGIC>MOL_PROPERTY
W(PB)
SciTegic.value.DoubleValue
-63.285

@<SCITEGIC>MOL_PROPERTY
W(SA)
SciTegic.value.DoubleValue
2.263

@<SCITEGIC>MOL_PROPERTY
Valence
SciTegic.value.DoubleValue
7.933

@<SCITEGIC>MOL_PROPERTY
Coulomb
SciTegic.value.DoubleValue
-0.124

@<SCITEGIC>MOL_PROPERTY
VdW
SciTegic.value.DoubleValue
0.778

@<SCITEGIC>MOL_PROPERTY
VdW6
SciTegic.value.DoubleValue
-7.981

@<SCITEGIC>MOL_PROPERTY
VdW12
SciTegic.value.DoubleValue
8.759

@<SCITEGIC>MOL_PROPERTY
Bond
SciTegic.value.DoubleValue
0.160

@<SCITEGIC>MOL_PROPERTY
Angle
SciTegic.value.DoubleValue
2.698

@<SCITEGIC>MOL_PROPERTY
Pdih
SciTegic.value.DoubleValue
5.074

@<SCITEGIC>MOL_PROPERTY
Idih
SciTegic.value.DoubleValue
0.001

@<SCITEGIC>MOL_PROPERTY
Tether
SciTegic.value.DoubleValue
0.000

@<TRIPOS>MOLECULE
guest-s21_confgen4.mol2 : confsearch ligand conformer 732
          22          21           1
SMALL
USER_CHARGES
 
@<TRIPOS>ATOM
       1    C1      22.057722   20.940153   23.792313 C.2        1 MOL1         0.6145
       2    O1      22.779890   20.253709   24.487897 O.co2      1 MOL1        -0.6735
       3    O2      22.227853   22.130214   23.615138 O.co2      1 MOL1        -0.6735
       4    C2      20.886791   20.267247   23.085123 C.3        1 MOL1        -0.1985
       5    H1      20.080371   21.003380   22.984745 H          1 MOL1         0.0740
       6    H2      20.523090   19.464963   23.736883 H          1 MOL1         0.0740
       7    C3      21.270913   19.699607   21.695386 C.3        1 MOL1        -0.1882
       8    H3      21.758195   20.494001   21.113222 H          1 MOL1         0.0742
       9    H4      22.021954   18.907925   21.823575 H          1 MOL1         0.0742
      10    C4      20.074976   19.153116   20.875783 C.3        1 MOL1        -0.1880
      11    H5      20.463672   18.827073   19.901331 H          1 MOL1         0.0742
      12    H6      19.365289   19.962931   20.657836 H          1 MOL1         0.0742
      13    C5      19.339567   17.954605   21.527284 C.3        1 MOL1        -0.1880
      14    H7      19.026919   17.264162   20.731965 H          1 MOL1         0.0742
      15    H8      20.031289   17.389972   22.167341 H          1 MOL1         0.0742
      16    C6      18.081922   18.367895   22.326205 C.3        1 MOL1        -0.1856
      17    H9      17.375071   18.880556   21.659320 H          1 MOL1         0.0742
      18    H10     18.343188   19.082798   23.115520 H          1 MOL1         0.0742
      19    C7      17.387894   17.145599   22.959961 C.3        1 MOL1        -0.2871
      20    H11     17.076417   16.427370   22.190245 H          1 MOL1         0.0754
      21    H12     16.493894   17.454191   23.517249 H          1 MOL1         0.0754
      22    H13     18.061112   16.630400   23.657604 H          1 MOL1         0.0754
@<TRIPOS>BOND
    1     1     2    1
    2     1     3    2
    3     1     4    1
    4     4     5    1
    5     4     6    1
    6     4     7    1
    7     7     8    1
    8     7     9    1
    9     7    10    1
   10    10    11    1
   11    10    12    1
   12    10    13    1
   13    13    14    1
   14    13    15    1
   15    13    16    1
   16    16    17    1
   17    16    18    1
   18    16    19    1
   19    19    20    1
   20    19    21    1
   21    19    22    1
@<TRIPOS>SUBSTRUCTURE
       1 MOL1            1 RESIDUE      1      MOL     
@<SCITEGIC>MOL_PROPERTY
VConf Rank
SciTegic.value.IntegerValue
732

@<SCITEGIC>MOL_PROPERTY
Conf_Id
SciTegic.value.IntegerValue
5

@<SCITEGIC>MOL_PROPERTY
Delta U+W
SciTegic.value.DoubleValue
2.167

@<SCITEGIC>MOL_PROPERTY
U+W
SciTegic.value.DoubleValue
-50.993

@<SCITEGIC>MOL_PROPERTY
Grad RMS
SciTegic.value.DoubleValue
0.000000

@<SCITEGIC>MOL_PROPERTY
U
SciTegic.value.DoubleValue
10.045

@<SCITEGIC>MOL_PROPERTY
W
SciTegic.value.DoubleValue
-61.037

@<SCITEGIC>MOL_PROPERTY
W(PB)
SciTegic.value.DoubleValue
-63.303

@<SCITEGIC>MOL_PROPERTY
W(SA)
SciTegic.value.DoubleValue
2.266

@<SCITEGIC>MOL_PROPERTY
Valence
SciTegic.value.DoubleValue
10.100

@<SCITEGIC>MOL_PROPERTY
Coulomb
SciTegic.value.DoubleValue
-0.883

@<SCITEGIC>MOL_PROPERTY
VdW
SciTegic.value.DoubleValue
0.828

@<SCITEGIC>MOL_PROPERTY
VdW6
SciTegic.value.DoubleValue
-8.177

@<SCITEGIC>MOL_PROPERTY
VdW12
SciTegic.value.DoubleValue
9.005

@<SCITEGIC>MOL_PROPERTY
Bond
SciTegic.value.DoubleValue
0.182

@<SCITEGIC>MOL_PROPERTY
Angle
SciTegic.value.DoubleValue
2.988

@<SCITEGIC>MOL_PROPERTY
Pdih
SciTegic.value.DoubleValue
6.930

@<SCITEGIC>MOL_PROPERTY
Idih
SciTegic.value.DoubleValue
0.001

@<SCITEGIC>MOL_PROPERTY
Tether
SciTegic.value.DoubleValue
0.000

@<TRIPOS>MOLECULE
guest-s21_confgen4.mol2 : confsearch ligand conformer 733
          22          21           1
SMALL
USER_CHARGES
 
@<TRIPOS>ATOM
       1    C1      20.651534   21.927322   23.546701 C.2        1 MOL1         0.6145
       2    O1      21.860489   22.049254   23.558118 O.co2      1 MOL1        -0.6735
       3    O2      19.886982   22.764032   23.984835 O.co2      1 MOL1        -0.6735
       4    C2      20.062101   20.644266   22.971951 C.3        1 MOL1        -0.1985
       5    H1      20.716115   20.315676   22.156460 H          1 MOL1         0.0740
       6    H2      19.084574   20.883210   22.536490 H          1 MOL1         0.0740
       7    C3      19.917621   19.522841   24.031514 C.3        1 MOL1        -0.1882
       8    H3      20.914527   19.241512   24.397964 H          1 MOL1         0.0742
       9    H4      19.374105   19.925010   24.897698 H          1 MOL1         0.0742
      10    C4      19.174004   18.260227   23.528015 C.3        1 MOL1        -0.1880
      11    H5      18.141680   18.515162   23.251849 H          1 MOL1         0.0742
      12    H6      19.093027   17.564809   24.374645 H          1 MOL1         0.0742
      13    C5      19.875513   17.519969   22.361133 C.3        1 MOL1        -0.1880
      14    H7      20.959968   17.690639   22.403466 H          1 MOL1         0.0742
      15    H8      19.730896   16.439468   22.497505 H          1 MOL1         0.0742
      16    C6      19.323144   17.906520   20.969650 C.3        1 MOL1        -0.1856
      17    H9      19.420133   18.985735   20.801563 H          1 MOL1         0.0742
      18    H10     18.249741   17.676553   20.923631 H          1 MOL1         0.0742
      19    C7      20.053861   17.150978   19.841581 C.3        1 MOL1        -0.2871
      20    H11     21.126130   17.386770   19.842242 H          1 MOL1         0.0754
      21    H12     19.646029   17.430460   18.861481 H          1 MOL1         0.0754
      22    H13     19.941297   16.065162   19.958479 H          1 MOL1         0.0754
@<TRIPOS>BOND
    1     1     2    1
    2     1     3    2
    3     1     4    1
    4     4     5    1
    5     4     6    1
    6     4     7    1
    7     7     8    1
    8     7     9    1
    9     7    10    1
   10    10    11    1
   11    10    12    1
   12    10    13    1
   13    13    14    1
   14    13    15    1
   15    13    16    1
   16    16    17    1
   17    16    18    1
   18    16    19    1
   19    19    20    1
   20    19    21    1
   21    19    22    1
@<TRIPOS>SUBSTRUCTURE
       1 MOL1            1 RESIDUE      1      MOL     
@<SCITEGIC>MOL_PROPERTY
VConf Rank
SciTegic.value.IntegerValue
733

@<SCITEGIC>MOL_PROPERTY
Conf_Id
SciTegic.value.IntegerValue
6

@<SCITEGIC>MOL_PROPERTY
Delta U+W
SciTegic.value.DoubleValue
2.118

@<SCITEGIC>MOL_PROPERTY
U+W
SciTegic.value.DoubleValue
-51.042

@<SCITEGIC>MOL_PROPERTY
Grad RMS
SciTegic.value.DoubleValue
0.000000

@<SCITEGIC>MOL_PROPERTY
U
SciTegic.value.DoubleValue
10.045

@<SCITEGIC>MOL_PROPERTY
W
SciTegic.value.DoubleValue
-61.086

@<SCITEGIC>MOL_PROPERTY
W(PB)
SciTegic.value.DoubleValue
-63.356

@<SCITEGIC>MOL_PROPERTY
W(SA)
SciTegic.value.DoubleValue
2.270

@<SCITEGIC>MOL_PROPERTY
Valence
SciTegic.value.DoubleValue
10.100

@<SCITEGIC>MOL_PROPERTY
Coulomb
SciTegic.value.DoubleValue
-0.883

@<SCITEGIC>MOL_PROPERTY
VdW
SciTegic.value.DoubleValue
0.828

@<SCITEGIC>MOL_PROPERTY
VdW6
SciTegic.value.DoubleValue
-8.177

@<SCITEGIC>MOL_PROPERTY
VdW12
SciTegic.value.DoubleValue
9.004

@<SCITEGIC>MOL_PROPERTY
Bond
SciTegic.value.DoubleValue
0.182

@<SCITEGIC>MOL_PROPERTY
Angle
SciTegic.value.DoubleValue
2.988

@<SCITEGIC>MOL_PROPERTY
Pdih
SciTegic.value.DoubleValue
6.930

@<SCITEGIC>MOL_PROPERTY
Idih
SciTegic.value.DoubleValue
0.001

@<SCITEGIC>MOL_PROPERTY
Tether
SciTegic.value.DoubleValue
0.000

@<TRIPOS>MOLECULE
guest-s21_confgen4.mol2 : confsearch ligand conformer 734
          22          21           1
SMALL
USER_CHARGES
 
@<TRIPOS>ATOM
       1    C1      18.262308   16.936926   21.476173 C.2        1 MOL1         0.6145
       2    O1      17.658696   16.386191   22.376083 O.co2      1 MOL1        -0.6735
       3    O2      19.208458   16.437302   20.899778 O.co2      1 MOL1        -0.6735
       4    C2      17.763438   18.298265   20.995193 C.3        1 MOL1        -0.1985
       5    H1      16.754080   18.134529   20.600328 H          1 MOL1         0.0740
       6    H2      18.381278   18.626422   20.150546 H          1 MOL1         0.0740
       7    C3      17.706783   19.406943   22.083634 C.3        1 MOL1        -0.1882
       8    H3      17.014982   20.186655   21.737394 H          1 MOL1         0.0742
       9    H4      17.268987   19.003254   23.007184 H          1 MOL1         0.0742
      10    C4      19.064935   20.084743   22.391727 C.3        1 MOL1        -0.1880
      11    H5      18.876559   20.943980   23.049906 H          1 MOL1         0.0742
      12    H6      19.492705   20.493146   21.465957 H          1 MOL1         0.0742
      13    C5      20.093688   19.154047   23.072889 C.3        1 MOL1        -0.1880
      14    H7      19.631310   18.666070   23.941871 H          1 MOL1         0.0742
      15    H8      20.393596   18.358400   22.379302 H          1 MOL1         0.0742
      16    C6      21.351944   19.926528   23.522345 C.3        1 MOL1        -0.1856
      17    H9      21.068075   20.722043   24.225146 H          1 MOL1         0.0742
      18    H10     21.814562   20.416654   22.654489 H          1 MOL1         0.0742
      19    C7      22.380831   18.994554   24.193340 C.3        1 MOL1        -0.2871
      20    H11     21.953588   18.514464   25.083478 H          1 MOL1         0.0754
      21    H12     23.268918   19.559196   24.505597 H          1 MOL1         0.0754
      22    H13     22.705764   18.206218   23.501640 H          1 MOL1         0.0754
@<TRIPOS>BOND
    1     1     2    1
    2     1     3    2
    3     1     4    1
    4     4     5    1
    5     4     6    1
    6     4     7    1
    7     7     8    1
    8     7     9    1
    9     7    10    1
   10    10    11    1
   11    10    12    1
   12    10    13    1
   13    13    14    1
   14    13    15    1
   15    13    16    1
   16    16    17    1
   17    16    18    1
   18    16    19    1
   19    19    20    1
   20    19    21    1
   21    19    22    1
@<TRIPOS>SUBSTRUCTURE
       1 MOL1            1 RESIDUE      1      MOL     
@<SCITEGIC>MOL_PROPERTY
VConf Rank
SciTegic.value.IntegerValue
734

@<SCITEGIC>MOL_PROPERTY
Conf_Id
SciTegic.value.IntegerValue
8

@<SCITEGIC>MOL_PROPERTY
Delta U+W
SciTegic.value.DoubleValue
1.886

@<SCITEGIC>MOL_PROPERTY
U+W
SciTegic.value.DoubleValue
-51.274

@<SCITEGIC>MOL_PROPERTY
Grad RMS
SciTegic.value.DoubleValue
0.000000

@<SCITEGIC>MOL_PROPERTY
U
SciTegic.value.DoubleValue
11.237

@<SCITEGIC>MOL_PROPERTY
W
SciTegic.value.DoubleValue
-62.510

@<SCITEGIC>MOL_PROPERTY
W(PB)
SciTegic.value.DoubleValue
-64.777

@<SCITEGIC>MOL_PROPERTY
W(SA)
SciTegic.value.DoubleValue
2.267

@<SCITEGIC>MOL_PROPERTY
Valence
SciTegic.value.DoubleValue
9.029

@<SCITEGIC>MOL_PROPERTY
Coulomb
SciTegic.value.DoubleValue
1.667

@<SCITEGIC>MOL_PROPERTY
VdW
SciTegic.value.DoubleValue
0.540

@<SCITEGIC>MOL_PROPERTY
VdW6
SciTegic.value.DoubleValue
-8.825

@<SCITEGIC>MOL_PROPERTY
VdW12
SciTegic.value.DoubleValue
9.365

@<SCITEGIC>MOL_PROPERTY
Bond
SciTegic.value.DoubleValue
0.186

@<SCITEGIC>MOL_PROPERTY
Angle
SciTegic.value.DoubleValue
3.195

@<SCITEGIC>MOL_PROPERTY
Pdih
SciTegic.value.DoubleValue
5.642

@<SCITEGIC>MOL_PROPERTY
Idih
SciTegic.value.DoubleValue
0.007

@<SCITEGIC>MOL_PROPERTY
Tether
SciTegic.value.DoubleValue
0.000

@<TRIPOS>MOLECULE
guest-s21_confgen4.mol2 : confsearch ligand conformer 735
          22          21           1
SMALL
USER_CHARGES
 
@<TRIPOS>ATOM
       1    C1      17.517456   20.330748   20.735880 C.2        1 MOL1         0.6145
       2    O1      18.342020   21.145505   20.371149 O.co2      1 MOL1        -0.6735
       3    O2      16.401697   20.627600   21.115707 O.co2      1 MOL1        -0.6735
       4    C2      17.890509   18.851698   20.686826 C.3        1 MOL1        -0.1985
       5    H1      18.791769   18.736660   20.074287 H          1 MOL1         0.0740
       6    H2      17.086439   18.330937   20.153906 H          1 MOL1         0.0740
       7    C3      18.086768   18.198976   22.082743 C.3        1 MOL1        -0.1882
       8    H3      17.139729   18.263556   22.636162 H          1 MOL1         0.0742
       9    H4      18.294746   17.128230   21.953983 H          1 MOL1         0.0742
      10    C4      19.207600   18.836231   22.940864 C.3        1 MOL1        -0.1880
      11    H5      19.188522   18.360621   23.929512 H          1 MOL1         0.0742
      12    H6      18.989629   19.900430   23.104853 H          1 MOL1         0.0742
      13    C5      20.618954   18.684700   22.322348 C.3        1 MOL1        -0.1880
      14    H7      20.832897   17.623123   22.138568 H          1 MOL1         0.0742
      15    H8      20.641470   19.183382   21.344727 H          1 MOL1         0.0742
      16    C6      21.740550   19.295836   23.194434 C.3        1 MOL1        -0.1856
      17    H9      21.520883   20.354058   23.392653 H          1 MOL1         0.0742
      18    H10     22.679165   19.275968   22.623659 H          1 MOL1         0.0742
      19    C7      21.957397   18.549462   24.528868 C.3        1 MOL1        -0.2871
      20    H11     21.086342   18.644635   25.188833 H          1 MOL1         0.0754
      21    H12     22.823639   18.961840   25.062223 H          1 MOL1         0.0754
      22    H13     22.144319   17.481633   24.355954 H          1 MOL1         0.0754
@<TRIPOS>BOND
    1     1     2    1
    2     1     3    2
    3     1     4    1
    4     4     5    1
    5     4     6    1
    6     4     7    1
    7     7     8    1
    8     7     9    1
    9     7    10    1
   10    10    11    1
   11    10    12    1
   12    10    13    1
   13    13    14    1
   14    13    15    1
   15    13    16    1
   16    16    17    1
   17    16    18    1
   18    16    19    1
   19    19    20    1
   20    19    21    1
   21    19    22    1
@<TRIPOS>SUBSTRUCTURE
       1 MOL1            1 RESIDUE      1      MOL     
@<SCITEGIC>MOL_PROPERTY
VConf Rank
SciTegic.value.IntegerValue
735

@<SCITEGIC>MOL_PROPERTY
Conf_Id
SciTegic.value.IntegerValue
93

@<SCITEGIC>MOL_PROPERTY
Delta U+W
SciTegic.value.DoubleValue
1.836

@<SCITEGIC>MOL_PROPERTY
U+W
SciTegic.value.DoubleValue
-51.323

@<SCITEGIC>MOL_PROPERTY
Grad RMS
SciTegic.value.DoubleValue
0.000000

@<SCITEGIC>MOL_PROPERTY
U
SciTegic.value.DoubleValue
10.427

@<SCITEGIC>MOL_PROPERTY
W
SciTegic.value.DoubleValue
-61.751

@<SCITEGIC>MOL_PROPERTY
W(PB)
SciTegic.value.DoubleValue
-63.980

@<SCITEGIC>MOL_PROPERTY
W(SA)
SciTegic.value.DoubleValue
2.230

@<SCITEGIC>MOL_PROPERTY
Valence
SciTegic.value.DoubleValue
8.446

@<SCITEGIC>MOL_PROPERTY
Coulomb
SciTegic.value.DoubleValue
1.306

@<SCITEGIC>MOL_PROPERTY
VdW
SciTegic.value.DoubleValue
0.676

@<SCITEGIC>MOL_PROPERTY
VdW6
SciTegic.value.DoubleValue
-8.928

@<SCITEGIC>MOL_PROPERTY
VdW12
SciTegic.value.DoubleValue
9.604

@<SCITEGIC>MOL_PROPERTY
Bond
SciTegic.value.DoubleValue
0.209

@<SCITEGIC>MOL_PROPERTY
Angle
SciTegic.value.DoubleValue
3.066

@<SCITEGIC>MOL_PROPERTY
Pdih
SciTegic.value.DoubleValue
5.170

@<SCITEGIC>MOL_PROPERTY
Idih
SciTegic.value.DoubleValue
0.001

@<SCITEGIC>MOL_PROPERTY
Tether
SciTegic.value.DoubleValue
0.000

@<TRIPOS>MOLECULE
guest-s21_confgen4.mol2 : confsearch ligand conformer 736
          22          21           1
SMALL
USER_CHARGES
 
@<TRIPOS>ATOM
       1    C1      22.268321   20.848168   22.595009 C.2        1 MOL1         0.6145
       2    O1      23.406922   20.427844   22.530035 O.co2      1 MOL1        -0.6735
       3    O2      21.816473   21.416537   23.569460 O.co2      1 MOL1        -0.6735
       4    C2      21.368449   20.678398   21.374120 C.3        1 MOL1        -0.1985
       5    H1      21.927745   21.042863   20.504594 H          1 MOL1         0.0740
       6    H2      20.501025   21.339152   21.482235 H          1 MOL1         0.0740
       7    C3      20.916578   19.214713   21.116072 C.3        1 MOL1        -0.1882
       8    H3      20.324159   19.177955   20.191939 H          1 MOL1         0.0742
       9    H4      21.808526   18.599455   20.933827 H          1 MOL1         0.0742
      10    C4      20.101828   18.578429   22.269352 C.3        1 MOL1        -0.1880
      11    H5      20.700494   18.578463   23.190506 H          1 MOL1         0.0742
      12    H6      19.923112   17.525731   22.016598 H          1 MOL1         0.0742
      13    C5      18.748256   19.283697   22.529899 C.3        1 MOL1        -0.1880
      14    H7      18.932284   20.329752   22.807093 H          1 MOL1         0.0742
      15    H8      18.154680   19.303247   21.605897 H          1 MOL1         0.0742
      16    C6      17.922722   18.629319   23.662275 C.3        1 MOL1        -0.1856
      17    H9      17.055861   19.268618   23.879128 H          1 MOL1         0.0742
      18    H10     18.520133   18.594410   24.583830 H          1 MOL1         0.0742
      19    C7      17.417314   17.212134   23.314487 C.3        1 MOL1        -0.2871
      20    H11     18.248248   16.503953   23.207826 H          1 MOL1         0.0754
      21    H12     16.846160   17.217730   22.377016 H          1 MOL1         0.0754
      22    H13     16.759891   16.834243   24.108144 H          1 MOL1         0.0754
@<TRIPOS>BOND
    1     1     2    1
    2     1     3    2
    3     1     4    1
    4     4     5    1
    5     4     6    1
    6     4     7    1
    7     7     8    1
    8     7     9    1
    9     7    10    1
   10    10    11    1
   11    10    12    1
   12    10    13    1
   13    13    14    1
   14    13    15    1
   15    13    16    1
   16    16    17    1
   17    16    18    1
   18    16    19    1
   19    19    20    1
   20    19    21    1
   21    19    22    1
@<TRIPOS>SUBSTRUCTURE
       1 MOL1            1 RESIDUE      1      MOL     
@<SCITEGIC>MOL_PROPERTY
VConf Rank
SciTegic.value.IntegerValue
736

@<SCITEGIC>MOL_PROPERTY
Conf_Id
SciTegic.value.IntegerValue
70

@<SCITEGIC>MOL_PROPERTY
Delta U+W
SciTegic.value.DoubleValue
1.803

@<SCITEGIC>MOL_PROPERTY
U+W
SciTegic.value.DoubleValue
-51.356

@<SCITEGIC>MOL_PROPERTY
Grad RMS
SciTegic.value.DoubleValue
0.000000

@<SCITEGIC>MOL_PROPERTY
U
SciTegic.value.DoubleValue
10.428

@<SCITEGIC>MOL_PROPERTY
W
SciTegic.value.DoubleValue
-61.784

@<SCITEGIC>MOL_PROPERTY
W(PB)
SciTegic.value.DoubleValue
-64.014

@<SCITEGIC>MOL_PROPERTY
W(SA)
SciTegic.value.DoubleValue
2.230

@<SCITEGIC>MOL_PROPERTY
Valence
SciTegic.value.DoubleValue
8.445

@<SCITEGIC>MOL_PROPERTY
Coulomb
SciTegic.value.DoubleValue
1.306

@<SCITEGIC>MOL_PROPERTY
VdW
SciTegic.value.DoubleValue
0.676

@<SCITEGIC>MOL_PROPERTY
VdW6
SciTegic.value.DoubleValue
-8.929

@<SCITEGIC>MOL_PROPERTY
VdW12
SciTegic.value.DoubleValue
9.605

@<SCITEGIC>MOL_PROPERTY
Bond
SciTegic.value.DoubleValue
0.209

@<SCITEGIC>MOL_PROPERTY
Angle
SciTegic.value.DoubleValue
3.066

@<SCITEGIC>MOL_PROPERTY
Pdih
SciTegic.value.DoubleValue
5.170

@<SCITEGIC>MOL_PROPERTY
Idih
SciTegic.value.DoubleValue
0.001

@<SCITEGIC>MOL_PROPERTY
Tether
SciTegic.value.DoubleValue
0.000

@<TRIPOS>MOLECULE
guest-s21_confgen4.mol2 : confsearch ligand conformer 737
          22          21           1
SMALL
USER_CHARGES
 
@<TRIPOS>ATOM
       1    C1      21.414254   18.283890   19.635356 C.2        1 MOL1         0.6145
       2    O1      22.461366   17.837609   20.061154 O.co2      1 MOL1        -0.6735
       3    O2      21.346065   19.229929   18.875593 O.co2      1 MOL1        -0.6735
       4    C2      20.116337   17.604356   20.062839 C.3        1 MOL1        -0.1985
       5    H1      20.269277   16.521938   19.979053 H          1 MOL1         0.0740
       6    H2      19.329597   17.869989   19.346377 H          1 MOL1         0.0740
       7    C3      19.668250   17.953972   21.505742 C.3        1 MOL1        -0.1882
       8    H3      18.807774   17.326384   21.774033 H          1 MOL1         0.0742
       9    H4      20.478121   17.697485   22.201411 H          1 MOL1         0.0742
      10    C4      19.281635   19.444307   21.660641 C.3        1 MOL1        -0.1880
      11    H5      18.533955   19.700172   20.897524 H          1 MOL1         0.0742
      12    H6      20.155996   20.079329   21.461781 H          1 MOL1         0.0742
      13    C5      18.700644   19.788586   23.052564 C.3        1 MOL1        -0.1880
      14    H7      18.342234   20.826874   23.032792 H          1 MOL1         0.0742
      15    H8      17.821458   19.160317   23.250492 H          1 MOL1         0.0742
      16    C6      19.722132   19.632541   24.201642 C.3        1 MOL1        -0.1856
      17    H9      20.623668   20.219513   23.978111 H          1 MOL1         0.0742
      18    H10     20.035915   18.584096   24.289183 H          1 MOL1         0.0742
      19    C7      19.131817   20.093527   25.549511 C.3        1 MOL1        -0.2871
      20    H11     18.841720   21.151673   25.510507 H          1 MOL1         0.0754
      21    H12     19.867702   19.973620   26.355213 H          1 MOL1         0.0754
      22    H13     18.243535   19.503691   25.811087 H          1 MOL1         0.0754
@<TRIPOS>BOND
    1     1     2    1
    2     1     3    2
    3     1     4    1
    4     4     5    1
    5     4     6    1
    6     4     7    1
    7     7     8    1
    8     7     9    1
    9     7    10    1
   10    10    11    1
   11    10    12    1
   12    10    13    1
   13    13    14    1
   14    13    15    1
   15    13    16    1
   16    16    17    1
   17    16    18    1
   18    16    19    1
   19    19    20    1
   20    19    21    1
   21    19    22    1
@<TRIPOS>SUBSTRUCTURE
       1 MOL1            1 RESIDUE      1      MOL     
@<SCITEGIC>MOL_PROPERTY
VConf Rank
SciTegic.value.IntegerValue
737

@<SCITEGIC>MOL_PROPERTY
Conf_Id
SciTegic.value.IntegerValue
85

@<SCITEGIC>MOL_PROPERTY
Delta U+W
SciTegic.value.DoubleValue
0.707

@<SCITEGIC>MOL_PROPERTY
U+W
SciTegic.value.DoubleValue
-52.452

@<SCITEGIC>MOL_PROPERTY
Grad RMS
SciTegic.value.DoubleValue
0.000000

@<SCITEGIC>MOL_PROPERTY
U
SciTegic.value.DoubleValue
8.925

@<SCITEGIC>MOL_PROPERTY
W
SciTegic.value.DoubleValue
-61.378

@<SCITEGIC>MOL_PROPERTY
W(PB)
SciTegic.value.DoubleValue
-63.661

@<SCITEGIC>MOL_PROPERTY
W(SA)
SciTegic.value.DoubleValue
2.283

@<SCITEGIC>MOL_PROPERTY
Valence
SciTegic.value.DoubleValue
7.881

@<SCITEGIC>MOL_PROPERTY
Coulomb
SciTegic.value.DoubleValue
0.349

@<SCITEGIC>MOL_PROPERTY
VdW
SciTegic.value.DoubleValue
0.695

@<SCITEGIC>MOL_PROPERTY
VdW6
SciTegic.value.DoubleValue
-8.049

@<SCITEGIC>MOL_PROPERTY
VdW12
SciTegic.value.DoubleValue
8.743

@<SCITEGIC>MOL_PROPERTY
Bond
SciTegic.value.DoubleValue
0.156

@<SCITEGIC>MOL_PROPERTY
Angle
SciTegic.value.DoubleValue
2.660

@<SCITEGIC>MOL_PROPERTY
Pdih
SciTegic.value.DoubleValue
5.064

@<SCITEGIC>MOL_PROPERTY
Idih
SciTegic.value.DoubleValue
0.001

@<SCITEGIC>MOL_PROPERTY
Tether
SciTegic.value.DoubleValue
0.000

@<TRIPOS>MOLECULE
guest-s21_confgen4.mol2 : confsearch ligand conformer 738
          22          21           1
SMALL
USER_CHARGES
 
@<TRIPOS>ATOM
       1    C1      20.493534   15.948590   23.848505 C.2        1 MOL1         0.6145
       2    O1      21.439325   15.372367   23.348119 O.co2      1 MOL1        -0.6735
       3    O2      20.346365   16.083385   25.047315 O.co2      1 MOL1        -0.6735
       4    C2      19.419178   16.514263   22.923752 C.3        1 MOL1        -0.1985
       5    H1      18.446326   16.221417   23.335809 H          1 MOL1         0.0740
       6    H2      19.508125   16.028935   21.944262 H          1 MOL1         0.0740
       7    C3      19.469566   18.056199   22.763802 C.3        1 MOL1        -0.1882
       8    H3      18.574143   18.376100   22.216274 H          1 MOL1         0.0742
       9    H4      19.427044   18.527728   23.755331 H          1 MOL1         0.0742
      10    C4      20.729956   18.535119   22.006745 C.3        1 MOL1        -0.1880
      11    H5      20.719949   18.127128   20.986870 H          1 MOL1         0.0742
      12    H6      21.622884   18.120218   22.493960 H          1 MOL1         0.0742
      13    C5      20.887754   20.075153   21.944157 C.3        1 MOL1        -0.1880
      14    H7      20.992314   20.484358   22.958330 H          1 MOL1         0.0742
      15    H8      21.838689   20.288743   21.437236 H          1 MOL1         0.0742
      16    C6      19.759207   20.812954   21.181310 C.3        1 MOL1        -0.1856
      17    H9      19.316488   20.152412   20.423091 H          1 MOL1         0.0742
      18    H10     20.200065   21.656006   20.631578 H          1 MOL1         0.0742
      19    C7      18.660415   21.372996   22.111921 C.3        1 MOL1        -0.2871
      20    H11     18.165418   20.579580   22.683212 H          1 MOL1         0.0754
      21    H12     17.891648   21.894747   21.527462 H          1 MOL1         0.0754
      22    H13     19.083327   22.090948   22.826606 H          1 MOL1         0.0754
@<TRIPOS>BOND
    1     1     2    1
    2     1     3    2
    3     1     4    1
    4     4     5    1
    5     4     6    1
    6     4     7    1
    7     7     8    1
    8     7     9    1
    9     7    10    1
   10    10    11    1
   11    10    12    1
   12    10    13    1
   13    13    14    1
   14    13    15    1
   15    13    16    1
   16    16    17    1
   17    16    18    1
   18    16    19    1
   19    19    20    1
   20    19    21    1
   21    19    22    1
@<TRIPOS>SUBSTRUCTURE
       1 MOL1            1 RESIDUE      1      MOL     
@<SCITEGIC>MOL_PROPERTY
VConf Rank
SciTegic.value.IntegerValue
738

@<SCITEGIC>MOL_PROPERTY
Conf_Id
SciTegic.value.IntegerValue
82

@<SCITEGIC>MOL_PROPERTY
Delta U+W
SciTegic.value.DoubleValue
3.438

@<SCITEGIC>MOL_PROPERTY
U+W
SciTegic.value.DoubleValue
-49.721

@<SCITEGIC>MOL_PROPERTY
Grad RMS
SciTegic.value.DoubleValue
0.000000

@<SCITEGIC>MOL_PROPERTY
U
SciTegic.value.DoubleValue
11.773

@<SCITEGIC>MOL_PROPERTY
W
SciTegic.value.DoubleValue
-61.495

@<SCITEGIC>MOL_PROPERTY
W(PB)
SciTegic.value.DoubleValue
-63.749

@<SCITEGIC>MOL_PROPERTY
W(SA)
SciTegic.value.DoubleValue
2.254

@<SCITEGIC>MOL_PROPERTY
Valence
SciTegic.value.DoubleValue
10.419

@<SCITEGIC>MOL_PROPERTY
Coulomb
SciTegic.value.DoubleValue
0.565

@<SCITEGIC>MOL_PROPERTY
VdW
SciTegic.value.DoubleValue
0.789

@<SCITEGIC>MOL_PROPERTY
VdW6
SciTegic.value.DoubleValue
-8.847

@<SCITEGIC>MOL_PROPERTY
VdW12
SciTegic.value.DoubleValue
9.636

@<SCITEGIC>MOL_PROPERTY
Bond
SciTegic.value.DoubleValue
0.200

@<SCITEGIC>MOL_PROPERTY
Angle
SciTegic.value.DoubleValue
3.187

@<SCITEGIC>MOL_PROPERTY
Pdih
SciTegic.value.DoubleValue
7.032

@<SCITEGIC>MOL_PROPERTY
Idih
SciTegic.value.DoubleValue
0.001

@<SCITEGIC>MOL_PROPERTY
Tether
SciTegic.value.DoubleValue
0.000

@<TRIPOS>MOLECULE
guest-s21_confgen4.mol2 : confsearch ligand conformer 739
          22          21           1
SMALL
USER_CHARGES
 
@<TRIPOS>ATOM
       1    C1      22.893732   18.067665   23.656522 C.2        1 MOL1         0.6145
       2    O1      22.706332   17.472983   24.699694 O.co2      1 MOL1        -0.6735
       3    O2      23.678498   17.699548   22.804717 O.co2      1 MOL1        -0.6735
       4    C2      22.117264   19.359295   23.415302 C.3        1 MOL1        -0.1985
       5    H1      22.628674   19.935719   22.634884 H          1 MOL1         0.0740
       6    H2      22.174419   19.951563   24.336140 H          1 MOL1         0.0740
       7    C3      20.630080   19.141655   23.032406 C.3        1 MOL1        -0.1882
       8    H3      20.142384   18.523614   23.798861 H          1 MOL1         0.0742
       9    H4      20.126282   20.116376   23.035988 H          1 MOL1         0.0742
      10    C4      20.463374   18.485186   21.642320 C.3        1 MOL1        -0.1880
      11    H5      21.060270   17.563702   21.604582 H          1 MOL1         0.0742
      12    H6      20.877848   19.150419   20.872659 H          1 MOL1         0.0742
      13    C5      19.000507   18.126045   21.279602 C.3        1 MOL1        -0.1880
      14    H7      19.017400   17.619651   20.304848 H          1 MOL1         0.0742
      15    H8      18.606364   17.388255   21.991814 H          1 MOL1         0.0742
      16    C6      18.041057   19.337909   21.175975 C.3        1 MOL1        -0.1856
      17    H9      17.330288   19.154032   20.358482 H          1 MOL1         0.0742
      18    H10     18.598545   20.242911   20.897783 H          1 MOL1         0.0742
      19    C7      17.229237   19.584004   22.467258 C.3        1 MOL1        -0.2871
      20    H11     16.612165   18.709835   22.712485 H          1 MOL1         0.0754
      21    H12     16.558249   20.443433   22.340861 H          1 MOL1         0.0754
      22    H13     17.879001   19.790084   23.325304 H          1 MOL1         0.0754
@<TRIPOS>BOND
    1     1     2    1
    2     1     3    2
    3     1     4    1
    4     4     5    1
    5     4     6    1
    6     4     7    1
    7     7     8    1
    8     7     9    1
    9     7    10    1
   10    10    11    1
   11    10    12    1
   12    10    13    1
   13    13    14    1
   14    13    15    1
   15    13    16    1
   16    16    17    1
   17    16    18    1
   18    16    19    1
   19    19    20    1
   20    19    21    1
   21    19    22    1
@<TRIPOS>SUBSTRUCTURE
       1 MOL1            1 RESIDUE      1      MOL     
@<SCITEGIC>MOL_PROPERTY
VConf Rank
SciTegic.value.IntegerValue
739

@<SCITEGIC>MOL_PROPERTY
Conf_Id
SciTegic.value.IntegerValue
94

@<SCITEGIC>MOL_PROPERTY
Delta U+W
SciTegic.value.DoubleValue
3.471

@<SCITEGIC>MOL_PROPERTY
U+W
SciTegic.value.DoubleValue
-49.688

@<SCITEGIC>MOL_PROPERTY
Grad RMS
SciTegic.value.DoubleValue
0.000000

@<SCITEGIC>MOL_PROPERTY
U
SciTegic.value.DoubleValue
11.773

@<SCITEGIC>MOL_PROPERTY
W
SciTegic.value.DoubleValue
-61.461

@<SCITEGIC>MOL_PROPERTY
W(PB)
SciTegic.value.DoubleValue
-63.710

@<SCITEGIC>MOL_PROPERTY
W(SA)
SciTegic.value.DoubleValue
2.248

@<SCITEGIC>MOL_PROPERTY
Valence
SciTegic.value.DoubleValue
10.419

@<SCITEGIC>MOL_PROPERTY
Coulomb
SciTegic.value.DoubleValue
0.566

@<SCITEGIC>MOL_PROPERTY
VdW
SciTegic.value.DoubleValue
0.789

@<SCITEGIC>MOL_PROPERTY
VdW6
SciTegic.value.DoubleValue
-8.847

@<SCITEGIC>MOL_PROPERTY
VdW12
SciTegic.value.DoubleValue
9.636

@<SCITEGIC>MOL_PROPERTY
Bond
SciTegic.value.DoubleValue
0.200

@<SCITEGIC>MOL_PROPERTY
Angle
SciTegic.value.DoubleValue
3.187

@<SCITEGIC>MOL_PROPERTY
Pdih
SciTegic.value.DoubleValue
7.032

@<SCITEGIC>MOL_PROPERTY
Idih
SciTegic.value.DoubleValue
0.001

@<SCITEGIC>MOL_PROPERTY
Tether
SciTegic.value.DoubleValue
0.000

@<TRIPOS>MOLECULE
guest-s21_confgen4.mol2 : confsearch ligand conformer 740
          22          21           1
SMALL
USER_CHARGES
 
@<TRIPOS>ATOM
       1    C1      16.886832   20.161563   23.503623 C.2        1 MOL1         0.6145
       2    O1      16.587312   20.859596   24.452167 O.co2      1 MOL1        -0.6735
       3    O2      16.159156   19.304246   23.043112 O.co2      1 MOL1        -0.6735
       4    C2      18.258690   20.359594   22.869020 C.3        1 MOL1        -0.1985
       5    H1      18.526434   21.419051   22.958999 H          1 MOL1         0.0740
       6    H2      18.167280   20.136175   21.800019 H          1 MOL1         0.0740
       7    C3      19.353697   19.474121   23.518137 C.3        1 MOL1        -0.1882
       8    H3      19.363753   19.661933   24.600599 H          1 MOL1         0.0742
       9    H4      19.090138   18.415116   23.396188 H          1 MOL1         0.0742
      10    C4      20.774021   19.737375   22.957966 C.3        1 MOL1        -0.1880
      11    H5      21.492602   19.112151   23.504052 H          1 MOL1         0.0742
      12    H6      21.055439   20.775774   23.179502 H          1 MOL1         0.0742
      13    C5      20.938535   19.494559   21.434436 C.3        1 MOL1        -0.1880
      14    H7      20.341263   20.231811   20.882189 H          1 MOL1         0.0742
      15    H8      21.983142   19.693665   21.159302 H          1 MOL1         0.0742
      16    C6      20.557241   18.074563   20.948479 C.3        1 MOL1        -0.1856
      17    H9      20.688161   18.030420   19.858608 H          1 MOL1         0.0742
      18    H10     19.491704   17.884625   21.134373 H          1 MOL1         0.0742
      19    C7      21.406389   16.959737   21.596487 C.3        1 MOL1        -0.2871
      20    H11     22.477528   17.138785   21.436617 H          1 MOL1         0.0754
      21    H12     21.157096   15.983952   21.160093 H          1 MOL1         0.0754
      22    H13     21.224752   16.897556   22.676810 H          1 MOL1         0.0754
@<TRIPOS>BOND
    1     1     2    1
    2     1     3    2
    3     1     4    1
    4     4     5    1
    5     4     6    1
    6     4     7    1
    7     7     8    1
    8     7     9    1
    9     7    10    1
   10    10    11    1
   11    10    12    1
   12    10    13    1
   13    13    14    1
   14    13    15    1
   15    13    16    1
   16    16    17    1
   17    16    18    1
   18    16    19    1
   19    19    20    1
   20    19    21    1
   21    19    22    1
@<TRIPOS>SUBSTRUCTURE
       1 MOL1            1 RESIDUE      1      MOL     
@<SCITEGIC>MOL_PROPERTY
VConf Rank
SciTegic.value.IntegerValue
740

@<SCITEGIC>MOL_PROPERTY
Conf_Id
SciTegic.value.IntegerValue
56

@<SCITEGIC>MOL_PROPERTY
Delta U+W
SciTegic.value.DoubleValue
0.853

@<SCITEGIC>MOL_PROPERTY
U+W
SciTegic.value.DoubleValue
-52.307

@<SCITEGIC>MOL_PROPERTY
Grad RMS
SciTegic.value.DoubleValue
0.000000

@<SCITEGIC>MOL_PROPERTY
U
SciTegic.value.DoubleValue
8.874

@<SCITEGIC>MOL_PROPERTY
W
SciTegic.value.DoubleValue
-61.181

@<SCITEGIC>MOL_PROPERTY
W(PB)
SciTegic.value.DoubleValue
-63.413

@<SCITEGIC>MOL_PROPERTY
W(SA)
SciTegic.value.DoubleValue
2.232

@<SCITEGIC>MOL_PROPERTY
Valence
SciTegic.value.DoubleValue
8.479

@<SCITEGIC>MOL_PROPERTY
Coulomb
SciTegic.value.DoubleValue
-0.357

@<SCITEGIC>MOL_PROPERTY
VdW
SciTegic.value.DoubleValue
0.753

@<SCITEGIC>MOL_PROPERTY
VdW6
SciTegic.value.DoubleValue
-9.081

@<SCITEGIC>MOL_PROPERTY
VdW12
SciTegic.value.DoubleValue
9.833

@<SCITEGIC>MOL_PROPERTY
Bond
SciTegic.value.DoubleValue
0.221

@<SCITEGIC>MOL_PROPERTY
Angle
SciTegic.value.DoubleValue
3.208

@<SCITEGIC>MOL_PROPERTY
Pdih
SciTegic.value.DoubleValue
5.050

@<SCITEGIC>MOL_PROPERTY
Idih
SciTegic.value.DoubleValue
0.000

@<SCITEGIC>MOL_PROPERTY
Tether
SciTegic.value.DoubleValue
0.000

@<TRIPOS>MOLECULE
guest-s21_confgen4.mol2 : confsearch ligand conformer 741
          22          21           1
SMALL
USER_CHARGES
 
@<TRIPOS>ATOM
       1    C1      23.433697   18.296714   23.884803 C.2        1 MOL1         0.6145
       2    O1      23.966286   18.032160   22.824255 O.co2      1 MOL1        -0.6735
       3    O2      24.026705   18.289019   24.945088 O.co2      1 MOL1        -0.6735
       4    C2      21.948280   18.659938   23.918412 C.3        1 MOL1        -0.1985
       5    H1      21.864619   19.652294   24.376887 H          1 MOL1         0.0740
       6    H2      21.453690   17.951752   24.593557 H          1 MOL1         0.0740
       7    C3      21.234132   18.656970   22.540590 C.3        1 MOL1        -0.1882
       8    H3      21.738396   19.363860   21.867155 H          1 MOL1         0.0742
       9    H4      21.326925   17.661735   22.084097 H          1 MOL1         0.0742
      10    C4      19.741908   19.033735   22.666402 C.3        1 MOL1        -0.1880
      11    H5      19.651687   20.028981   23.122992 H          1 MOL1         0.0742
      12    H6      19.239963   18.325782   23.340186 H          1 MOL1         0.0742
      13    C5      19.033437   19.030080   21.294774 C.3        1 MOL1        -0.1880
      14    H7      19.535082   19.737870   20.620597 H          1 MOL1         0.0742
      15    H8      19.123369   18.034986   20.837797 H          1 MOL1         0.0742
      16    C6      17.542215   19.406562   21.419746 C.3        1 MOL1        -0.1856
      17    H9      17.448329   20.402413   21.874654 H          1 MOL1         0.0742
      18    H10     17.036601   18.699470   22.091945 H          1 MOL1         0.0742
      19    C7      16.838358   19.401694   20.047923 C.3        1 MOL1        -0.2871
      20    H11     17.304466   20.123784   19.364741 H          1 MOL1         0.0754
      21    H12     15.779672   19.671400   20.155324 H          1 MOL1         0.0754
      22    H13     16.889592   18.408077   19.583696 H          1 MOL1         0.0754
@<TRIPOS>BOND
    1     1     2    1
    2     1     3    2
    3     1     4    1
    4     4     5    1
    5     4     6    1
    6     4     7    1
    7     7     8    1
    8     7     9    1
    9     7    10    1
   10    10    11    1
   11    10    12    1
   12    10    13    1
   13    13    14    1
   14    13    15    1
   15    13    16    1
   16    16    17    1
   17    16    18    1
   18    16    19    1
   19    19    20    1
   20    19    21    1
   21    19    22    1
@<TRIPOS>SUBSTRUCTURE
       1 MOL1            1 RESIDUE      1      MOL     
@<SCITEGIC>MOL_PROPERTY
VConf Rank
SciTegic.value.IntegerValue
741

@<SCITEGIC>MOL_PROPERTY
Conf_Id
SciTegic.value.IntegerValue
0

@<SCITEGIC>MOL_PROPERTY
Delta U+W
SciTegic.value.DoubleValue
0.000

@<SCITEGIC>MOL_PROPERTY
U+W
SciTegic.value.DoubleValue
-53.159

@<SCITEGIC>MOL_PROPERTY
Grad RMS
SciTegic.value.DoubleValue
0.000000

@<SCITEGIC>MOL_PROPERTY
U
SciTegic.value.DoubleValue
6.763

@<SCITEGIC>MOL_PROPERTY
W
SciTegic.value.DoubleValue
-59.922

@<SCITEGIC>MOL_PROPERTY
W(PB)
SciTegic.value.DoubleValue
-62.256

@<SCITEGIC>MOL_PROPERTY
W(SA)
SciTegic.value.DoubleValue
2.334

@<SCITEGIC>MOL_PROPERTY
Valence
SciTegic.value.DoubleValue
7.600

@<SCITEGIC>MOL_PROPERTY
Coulomb
SciTegic.value.DoubleValue
-2.139

@<SCITEGIC>MOL_PROPERTY
VdW
SciTegic.value.DoubleValue
1.302

@<SCITEGIC>MOL_PROPERTY
VdW6
SciTegic.value.DoubleValue
-6.786

@<SCITEGIC>MOL_PROPERTY
VdW12
SciTegic.value.DoubleValue
8.088

@<SCITEGIC>MOL_PROPERTY
Bond
SciTegic.value.DoubleValue
0.134

@<SCITEGIC>MOL_PROPERTY
Angle
SciTegic.value.DoubleValue
2.720

@<SCITEGIC>MOL_PROPERTY
Pdih
SciTegic.value.DoubleValue
4.746

@<SCITEGIC>MOL_PROPERTY
Idih
SciTegic.value.DoubleValue
0.000

@<SCITEGIC>MOL_PROPERTY
Tether
SciTegic.value.DoubleValue
0.000

@<TRIPOS>MOLECULE
guest-s21_confgen4.mol2 : confsearch ligand conformer 742
          22          21           1
SMALL
USER_CHARGES
 
@<TRIPOS>ATOM
       1    C1      15.807782   19.147797   22.649052 C.2        1 MOL1         0.6145
       2    O1      15.171757   18.721961   21.705353 O.co2      1 MOL1        -0.6735
       3    O2      15.428145   20.055631   23.361894 O.co2      1 MOL1        -0.6735
       4    C2      17.167551   18.523421   22.941276 C.3        1 MOL1        -0.1985
       5    H1      17.124082   17.464629   22.658905 H          1 MOL1         0.0740
       6    H2      17.335220   18.563515   24.024300 H          1 MOL1         0.0740
       7    C3      18.326458   19.228632   22.194507 C.3        1 MOL1        -0.1882
       8    H3      18.137017   19.191242   21.112709 H          1 MOL1         0.0742
       9    H4      18.348150   20.290092   22.478063 H          1 MOL1         0.0742
      10    C4      19.691535   18.578310   22.506798 C.3        1 MOL1        -0.1880
      11    H5      19.666052   17.517100   22.223325 H          1 MOL1         0.0742
      12    H6      19.877223   18.616195   23.589044 H          1 MOL1         0.0742
      13    C5      20.844815   19.283373   21.761061 C.3        1 MOL1        -0.1880
      14    H7      20.659491   19.245712   20.678766 H          1 MOL1         0.0742
      15    H8      20.870630   20.344627   22.044256 H          1 MOL1         0.0742
      16    C6      22.209465   18.633983   22.072661 C.3        1 MOL1        -0.1856
      17    H9      22.188200   17.572632   21.788834 H          1 MOL1         0.0742
      18    H10     22.399339   18.671531   23.154333 H          1 MOL1         0.0742
      19    C7      23.358486   19.340897   21.326093 C.3        1 MOL1        -0.2871
      20    H11     23.422997   20.398092   21.615204 H          1 MOL1         0.0754
      21    H12     23.210161   19.291040   20.239391 H          1 MOL1         0.0754
      22    H13     24.320724   18.866567   21.558906 H          1 MOL1         0.0754
@<TRIPOS>BOND
    1     1     2    1
    2     1     3    2
    3     1     4    1
    4     4     5    1
    5     4     6    1
    6     4     7    1
    7     7     8    1
    8     7     9    1
    9     7    10    1
   10    10    11    1
   11    10    12    1
   12    10    13    1
   13    13    14    1
   14    13    15    1
   15    13    16    1
   16    16    17    1
   17    16    18    1
   18    16    19    1
   19    19    20    1
   20    19    21    1
   21    19    22    1
@<TRIPOS>SUBSTRUCTURE
       1 MOL1            1 RESIDUE      1      MOL     
@<SCITEGIC>MOL_PROPERTY
VConf Rank
SciTegic.value.IntegerValue
742

@<SCITEGIC>MOL_PROPERTY
Conf_Id
SciTegic.value.IntegerValue
10

@<SCITEGIC>MOL_PROPERTY
Delta U+W
SciTegic.value.DoubleValue
-1.291

@<SCITEGIC>MOL_PROPERTY
U+W
SciTegic.value.DoubleValue
-54.451

@<SCITEGIC>MOL_PROPERTY
Grad RMS
SciTegic.value.DoubleValue
0.000000

@<SCITEGIC>MOL_PROPERTY
U
SciTegic.value.DoubleValue
5.779

@<SCITEGIC>MOL_PROPERTY
W
SciTegic.value.DoubleValue
-60.230

@<SCITEGIC>MOL_PROPERTY
W(PB)
SciTegic.value.DoubleValue
-62.557

@<SCITEGIC>MOL_PROPERTY
W(SA)
SciTegic.value.DoubleValue
2.328

@<SCITEGIC>MOL_PROPERTY
Valence
SciTegic.value.DoubleValue
7.101

@<SCITEGIC>MOL_PROPERTY
Coulomb
SciTegic.value.DoubleValue
-2.079

@<SCITEGIC>MOL_PROPERTY
VdW
SciTegic.value.DoubleValue
0.757

@<SCITEGIC>MOL_PROPERTY
VdW6
SciTegic.value.DoubleValue
-6.496

@<SCITEGIC>MOL_PROPERTY
VdW12
SciTegic.value.DoubleValue
7.253

@<SCITEGIC>MOL_PROPERTY
Bond
SciTegic.value.DoubleValue
0.100

@<SCITEGIC>MOL_PROPERTY
Angle
SciTegic.value.DoubleValue
2.262

@<SCITEGIC>MOL_PROPERTY
Pdih
SciTegic.value.DoubleValue
4.738

@<SCITEGIC>MOL_PROPERTY
Idih
SciTegic.value.DoubleValue
0.001

@<SCITEGIC>MOL_PROPERTY
Tether
SciTegic.value.DoubleValue
0.000

@<TRIPOS>MOLECULE
guest-s21_confgen4.mol2 : confsearch ligand conformer 743
          22          21           1
SMALL
USER_CHARGES
 
@<TRIPOS>ATOM
       1    C1      21.523627   18.329830   25.688014 C.2        1 MOL1         0.6145
       2    O1      22.732781   18.228333   25.624005 O.co2      1 MOL1        -0.6735
       3    O2      20.932011   18.715256   26.676900 O.co2      1 MOL1        -0.6735
       4    C2      20.704834   17.973929   24.452247 C.3        1 MOL1        -0.1985
       5    H1      19.741550   17.570087   24.786373 H          1 MOL1         0.0740
       6    H2      21.225720   17.170055   23.918279 H          1 MOL1         0.0740
       7    C3      20.479865   19.182676   23.510722 C.3        1 MOL1        -0.1882
       8    H3      19.969639   19.983242   24.064144 H          1 MOL1         0.0742
       9    H4      21.453324   19.583123   23.195175 H          1 MOL1         0.0742
      10    C4      19.648850   18.796466   22.267902 C.3        1 MOL1        -0.1880
      11    H5      18.675645   18.398514   22.586275 H          1 MOL1         0.0742
      12    H6      20.163597   17.991843   21.726806 H          1 MOL1         0.0742
      13    C5      19.430232   20.005542   21.329498 C.3        1 MOL1        -0.1880
      14    H7      18.979121   20.826497   21.903489 H          1 MOL1         0.0742
      15    H8      20.400146   20.374410   20.968752 H          1 MOL1         0.0742
      16    C6      18.515899   19.689948   20.122974 C.3        1 MOL1        -0.1856
      17    H9      18.317673   20.622898   19.577496 H          1 MOL1         0.0742
      18    H10     17.542368   19.326606   20.480088 H          1 MOL1         0.0742
      19    C7      19.126790   18.662912   19.145110 C.3        1 MOL1        -0.2871
      20    H11     18.482392   18.540789   18.264907 H          1 MOL1         0.0754
      21    H12     19.236283   17.677741   19.615379 H          1 MOL1         0.0754
      22    H13     20.115075   18.990949   18.797518 H          1 MOL1         0.0754
@<TRIPOS>BOND
    1     1     2    1
    2     1     3    2
    3     1     4    1
    4     4     5    1
    5     4     6    1
    6     4     7    1
    7     7     8    1
    8     7     9    1
    9     7    10    1
   10    10    11    1
   11    10    12    1
   12    10    13    1
   13    13    14    1
   14    13    15    1
   15    13    16    1
   16    16    17    1
   17    16    18    1
   18    16    19    1
   19    19    20    1
   20    19    21    1
   21    19    22    1
@<TRIPOS>SUBSTRUCTURE
       1 MOL1            1 RESIDUE      1      MOL     
@<SCITEGIC>MOL_PROPERTY
VConf Rank
SciTegic.value.IntegerValue
743

@<SCITEGIC>MOL_PROPERTY
Conf_Id
SciTegic.value.IntegerValue
37

@<SCITEGIC>MOL_PROPERTY
Delta U+W
SciTegic.value.DoubleValue
-0.345

@<SCITEGIC>MOL_PROPERTY
U+W
SciTegic.value.DoubleValue
-53.504

@<SCITEGIC>MOL_PROPERTY
Grad RMS
SciTegic.value.DoubleValue
0.000000

@<SCITEGIC>MOL_PROPERTY
U
SciTegic.value.DoubleValue
6.751

@<SCITEGIC>MOL_PROPERTY
W
SciTegic.value.DoubleValue
-60.255

@<SCITEGIC>MOL_PROPERTY
W(PB)
SciTegic.value.DoubleValue
-62.592

@<SCITEGIC>MOL_PROPERTY
W(SA)
SciTegic.value.DoubleValue
2.336

@<SCITEGIC>MOL_PROPERTY
Valence
SciTegic.value.DoubleValue
7.602

@<SCITEGIC>MOL_PROPERTY
Coulomb
SciTegic.value.DoubleValue
-1.744

@<SCITEGIC>MOL_PROPERTY
VdW
SciTegic.value.DoubleValue
0.894

@<SCITEGIC>MOL_PROPERTY
VdW6
SciTegic.value.DoubleValue
-7.110

@<SCITEGIC>MOL_PROPERTY
VdW12
SciTegic.value.DoubleValue
8.004

@<SCITEGIC>MOL_PROPERTY
Bond
SciTegic.value.DoubleValue
0.131

@<SCITEGIC>MOL_PROPERTY
Angle
SciTegic.value.DoubleValue
2.489

@<SCITEGIC>MOL_PROPERTY
Pdih
SciTegic.value.DoubleValue
4.982

@<SCITEGIC>MOL_PROPERTY
Idih
SciTegic.value.DoubleValue
0.001

@<SCITEGIC>MOL_PROPERTY
Tether
SciTegic.value.DoubleValue
0.000

@<TRIPOS>MOLECULE
guest-s21_confgen4.mol2 : confsearch ligand conformer 744
          22          21           1
SMALL
USER_CHARGES
 
@<TRIPOS>ATOM
       1    C1      22.842159   16.582169   22.318164 C.2        1 MOL1         0.6145
       2    O1      23.244086   16.384070   23.447616 O.co2      1 MOL1        -0.6735
       3    O2      23.544480   16.500865   21.329937 O.co2      1 MOL1        -0.6735
       4    C2      21.381021   16.975679   22.132590 C.3        1 MOL1        -0.1985
       5    H1      20.792925   16.481022   22.914968 H          1 MOL1         0.0740
       6    H2      21.040248   16.576559   21.169666 H          1 MOL1         0.0740
       7    C3      21.158930   18.507375   22.184911 C.3        1 MOL1        -0.1882
       8    H3      21.516343   18.893235   23.149752 H          1 MOL1         0.0742
       9    H4      21.764873   18.988420   21.404565 H          1 MOL1         0.0742
      10    C4      19.672489   18.879598   21.994404 C.3        1 MOL1        -0.1880
      11    H5      19.075858   18.388388   22.774090 H          1 MOL1         0.0742
      12    H6      19.318617   18.494589   21.028279 H          1 MOL1         0.0742
      13    C5      19.455569   20.409294   22.051317 C.3        1 MOL1        -0.1880
      14    H7      19.761254   20.790262   23.035368 H          1 MOL1         0.0742
      15    H8      20.111821   20.891042   21.313627 H          1 MOL1         0.0742
      16    C6      17.997143   20.834620   21.762519 C.3        1 MOL1        -0.1856
      17    H9      17.689920   20.460756   20.776035 H          1 MOL1         0.0742
      18    H10     17.954506   21.931065   21.705727 H          1 MOL1         0.0742
      19    C7      16.996154   20.353411   22.835211 C.3        1 MOL1        -0.2871
      20    H11     17.299513   20.690277   23.835026 H          1 MOL1         0.0754
      21    H12     16.918700   19.259099   22.848919 H          1 MOL1         0.0754
      22    H13     15.994616   20.754554   22.632910 H          1 MOL1         0.0754
@<TRIPOS>BOND
    1     1     2    1
    2     1     3    2
    3     1     4    1
    4     4     5    1
    5     4     6    1
    6     4     7    1
    7     7     8    1
    8     7     9    1
    9     7    10    1
   10    10    11    1
   11    10    12    1
   12    10    13    1
   13    13    14    1
   14    13    15    1
   15    13    16    1
   16    16    17    1
   17    16    18    1
   18    16    19    1
   19    19    20    1
   20    19    21    1
   21    19    22    1
@<TRIPOS>SUBSTRUCTURE
       1 MOL1            1 RESIDUE      1      MOL     
@<SCITEGIC>MOL_PROPERTY
VConf Rank
SciTegic.value.IntegerValue
744

@<SCITEGIC>MOL_PROPERTY
Conf_Id
SciTegic.value.IntegerValue
38

@<SCITEGIC>MOL_PROPERTY
Delta U+W
SciTegic.value.DoubleValue
-0.439

@<SCITEGIC>MOL_PROPERTY
U+W
SciTegic.value.DoubleValue
-53.598

@<SCITEGIC>MOL_PROPERTY
Grad RMS
SciTegic.value.DoubleValue
0.000000

@<SCITEGIC>MOL_PROPERTY
U
SciTegic.value.DoubleValue
6.751

@<SCITEGIC>MOL_PROPERTY
W
SciTegic.value.DoubleValue
-60.350

@<SCITEGIC>MOL_PROPERTY
W(PB)
SciTegic.value.DoubleValue
-62.659

@<SCITEGIC>MOL_PROPERTY
W(SA)
SciTegic.value.DoubleValue
2.309

@<SCITEGIC>MOL_PROPERTY
Valence
SciTegic.value.DoubleValue
7.602

@<SCITEGIC>MOL_PROPERTY
Coulomb
SciTegic.value.DoubleValue
-1.744

@<SCITEGIC>MOL_PROPERTY
VdW
SciTegic.value.DoubleValue
0.893

@<SCITEGIC>MOL_PROPERTY
VdW6
SciTegic.value.DoubleValue
-7.110

@<SCITEGIC>MOL_PROPERTY
VdW12
SciTegic.value.DoubleValue
8.004

@<SCITEGIC>MOL_PROPERTY
Bond
SciTegic.value.DoubleValue
0.131

@<SCITEGIC>MOL_PROPERTY
Angle
SciTegic.value.DoubleValue
2.489

@<SCITEGIC>MOL_PROPERTY
Pdih
SciTegic.value.DoubleValue
4.981

@<SCITEGIC>MOL_PROPERTY
Idih
SciTegic.value.DoubleValue
0.001

@<SCITEGIC>MOL_PROPERTY
Tether
SciTegic.value.DoubleValue
0.000

@<TRIPOS>MOLECULE
guest-s21_confgen4.mol2 : confsearch ligand conformer 745
          22          21           1
SMALL
USER_CHARGES
 
@<TRIPOS>ATOM
       1    C1      22.284338   17.347014   24.593921 C.2        1 MOL1         0.6145
       2    O1      23.450442   17.134538   24.326308 O.co2      1 MOL1        -0.6735
       3    O2      21.674123   16.753205   25.460847 O.co2      1 MOL1        -0.6735
       4    C2      21.539760   18.400846   23.781929 C.3        1 MOL1        -0.1985
       5    H1      22.258396   19.176373   23.491177 H          1 MOL1         0.0740
       6    H2      20.803214   18.870747   24.443104 H          1 MOL1         0.0740
       7    C3      20.850290   17.811538   22.523772 C.3        1 MOL1        -0.1882
       8    H3      21.600926   17.265616   21.935586 H          1 MOL1         0.0742
       9    H4      20.098123   17.071213   22.829479 H          1 MOL1         0.0742
      10    C4      20.194162   18.880308   21.617159 C.3        1 MOL1        -0.1880
      11    H5      19.863647   18.386187   20.694699 H          1 MOL1         0.0742
      12    H6      20.946805   19.623321   21.320296 H          1 MOL1         0.0742
      13    C5      18.988951   19.592687   22.278980 C.3        1 MOL1        -0.1880
      14    H7      18.237193   18.849380   22.577402 H          1 MOL1         0.0742
      15    H8      19.318647   20.089805   23.199986 H          1 MOL1         0.0742
      16    C6      18.330789   20.657679   21.370833 C.3        1 MOL1        -0.1856
      17    H9      19.082252   21.396874   21.060694 H          1 MOL1         0.0742
      18    H10     17.581306   21.205616   21.958443 H          1 MOL1         0.0742
      19    C7      17.641992   20.061108   20.124111 C.3        1 MOL1        -0.2871
      20    H11     18.370473   19.606500   19.441416 H          1 MOL1         0.0754
      21    H12     17.110883   20.844412   19.567984 H          1 MOL1         0.0754
      22    H13     16.910244   19.293873   20.408749 H          1 MOL1         0.0754
@<TRIPOS>BOND
    1     1     2    1
    2     1     3    2
    3     1     4    1
    4     4     5    1
    5     4     6    1
    6     4     7    1
    7     7     8    1
    8     7     9    1
    9     7    10    1
   10    10    11    1
   11    10    12    1
   12    10    13    1
   13    13    14    1
   14    13    15    1
   15    13    16    1
   16    16    17    1
   17    16    18    1
   18    16    19    1
   19    19    20    1
   20    19    21    1
   21    19    22    1
@<TRIPOS>SUBSTRUCTURE
       1 MOL1            1 RESIDUE      1      MOL     
@<SCITEGIC>MOL_PROPERTY
VConf Rank
SciTegic.value.IntegerValue
745

@<SCITEGIC>MOL_PROPERTY
Conf_Id
SciTegic.value.IntegerValue
60

@<SCITEGIC>MOL_PROPERTY
Delta U+W
SciTegic.value.DoubleValue
0.386

@<SCITEGIC>MOL_PROPERTY
U+W
SciTegic.value.DoubleValue
-52.773

@<SCITEGIC>MOL_PROPERTY
Grad RMS
SciTegic.value.DoubleValue
0.000000

@<SCITEGIC>MOL_PROPERTY
U
SciTegic.value.DoubleValue
7.689

@<SCITEGIC>MOL_PROPERTY
W
SciTegic.value.DoubleValue
-60.463

@<SCITEGIC>MOL_PROPERTY
W(PB)
SciTegic.value.DoubleValue
-62.772

@<SCITEGIC>MOL_PROPERTY
W(SA)
SciTegic.value.DoubleValue
2.309

@<SCITEGIC>MOL_PROPERTY
Valence
SciTegic.value.DoubleValue
8.197

@<SCITEGIC>MOL_PROPERTY
Coulomb
SciTegic.value.DoubleValue
-1.561

@<SCITEGIC>MOL_PROPERTY
VdW
SciTegic.value.DoubleValue
1.053

@<SCITEGIC>MOL_PROPERTY
VdW6
SciTegic.value.DoubleValue
-7.737

@<SCITEGIC>MOL_PROPERTY
VdW12
SciTegic.value.DoubleValue
8.790

@<SCITEGIC>MOL_PROPERTY
Bond
SciTegic.value.DoubleValue
0.181

@<SCITEGIC>MOL_PROPERTY
Angle
SciTegic.value.DoubleValue
2.780

@<SCITEGIC>MOL_PROPERTY
Pdih
SciTegic.value.DoubleValue
5.235

@<SCITEGIC>MOL_PROPERTY
Idih
SciTegic.value.DoubleValue
0.001

@<SCITEGIC>MOL_PROPERTY
Tether
SciTegic.value.DoubleValue
0.000

@<TRIPOS>MOLECULE
guest-s21_confgen4.mol2 : confsearch ligand conformer 746
          22          21           1
SMALL
USER_CHARGES
 
@<TRIPOS>ATOM
       1    C1      19.631895   21.631900   19.604908 C.2        1 MOL1         0.6145
       2    O1      19.865965   22.716093   20.101166 O.co2      1 MOL1        -0.6735
       3    O2      19.068402   21.487977   18.537986 O.co2      1 MOL1        -0.6735
       4    C2      20.047823   20.382819   20.373729 C.3        1 MOL1        -0.1985
       5    H1      20.967124   20.619886   20.920673 H          1 MOL1         0.0740
       6    H2      20.294420   19.601455   19.644980 H          1 MOL1         0.0740
       7    C3      18.946331   19.881372   21.343718 C.3        1 MOL1        -0.1882
       8    H3      18.742277   20.653049   22.098815 H          1 MOL1         0.0742
       9    H4      18.014167   19.748141   20.777355 H          1 MOL1         0.0742
      10    C4      19.295152   18.545234   22.042131 C.3        1 MOL1        -0.1880
      11    H5      19.506538   17.778302   21.284636 H          1 MOL1         0.0742
      12    H6      18.406223   18.206060   22.589025 H          1 MOL1         0.0742
      13    C5      20.489792   18.656263   23.021174 C.3        1 MOL1        -0.1880
      14    H7      21.380206   18.992319   22.475000 H          1 MOL1         0.0742
      15    H8      20.279062   19.424563   23.777488 H          1 MOL1         0.0742
      16    C6      20.835142   17.321648   23.722351 C.3        1 MOL1        -0.1856
      17    H9      21.768330   17.452934   24.287302 H          1 MOL1         0.0742
      18    H10     21.035399   16.547328   22.968947 H          1 MOL1         0.0742
      19    C7      19.735490   16.833822   24.690569 C.3        1 MOL1        -0.2871
      20    H11     19.494178   17.606182   25.432427 H          1 MOL1         0.0754
      21    H12     20.070264   15.939151   25.231315 H          1 MOL1         0.0754
      22    H13     18.815274   16.571382   24.154143 H          1 MOL1         0.0754
@<TRIPOS>BOND
    1     1     2    1
    2     1     3    2
    3     1     4    1
    4     4     5    1
    5     4     6    1
    6     4     7    1
    7     7     8    1
    8     7     9    1
    9     7    10    1
   10    10    11    1
   11    10    12    1
   12    10    13    1
   13    13    14    1
   14    13    15    1
   15    13    16    1
   16    16    17    1
   17    16    18    1
   18    16    19    1
   19    19    20    1
   20    19    21    1
   21    19    22    1
@<TRIPOS>SUBSTRUCTURE
       1 MOL1            1 RESIDUE      1      MOL     
@<SCITEGIC>MOL_PROPERTY
VConf Rank
SciTegic.value.IntegerValue
746

@<SCITEGIC>MOL_PROPERTY
Conf_Id
SciTegic.value.IntegerValue
28

@<SCITEGIC>MOL_PROPERTY
Delta U+W
SciTegic.value.DoubleValue
0.351

@<SCITEGIC>MOL_PROPERTY
U+W
SciTegic.value.DoubleValue
-52.808

@<SCITEGIC>MOL_PROPERTY
Grad RMS
SciTegic.value.DoubleValue
0.000000

@<SCITEGIC>MOL_PROPERTY
U
SciTegic.value.DoubleValue
7.689

@<SCITEGIC>MOL_PROPERTY
W
SciTegic.value.DoubleValue
-60.498

@<SCITEGIC>MOL_PROPERTY
W(PB)
SciTegic.value.DoubleValue
-62.768

@<SCITEGIC>MOL_PROPERTY
W(SA)
SciTegic.value.DoubleValue
2.270

@<SCITEGIC>MOL_PROPERTY
Valence
SciTegic.value.DoubleValue
8.197

@<SCITEGIC>MOL_PROPERTY
Coulomb
SciTegic.value.DoubleValue
-1.561

@<SCITEGIC>MOL_PROPERTY
VdW
SciTegic.value.DoubleValue
1.053

@<SCITEGIC>MOL_PROPERTY
VdW6
SciTegic.value.DoubleValue
-7.737

@<SCITEGIC>MOL_PROPERTY
VdW12
SciTegic.value.DoubleValue
8.791

@<SCITEGIC>MOL_PROPERTY
Bond
SciTegic.value.DoubleValue
0.181

@<SCITEGIC>MOL_PROPERTY
Angle
SciTegic.value.DoubleValue
2.780

@<SCITEGIC>MOL_PROPERTY
Pdih
SciTegic.value.DoubleValue
5.235

@<SCITEGIC>MOL_PROPERTY
Idih
SciTegic.value.DoubleValue
0.001

@<SCITEGIC>MOL_PROPERTY
Tether
SciTegic.value.DoubleValue
0.000

@<TRIPOS>MOLECULE
guest-s21_confgen4.mol2 : confsearch ligand conformer 747
          22          21           1
SMALL
USER_CHARGES
 
@<TRIPOS>ATOM
       1    C1      21.597724   16.161162   24.179115 C.2        1 MOL1         0.6145
       2    O1      22.213154   16.487084   25.174852 O.co2      1 MOL1        -0.6735
       3    O2      20.885370   15.178575   24.119716 O.co2      1 MOL1        -0.6735
       4    C2      21.709887   17.045005   22.941955 C.3        1 MOL1        -0.1985
       5    H1      21.619881   16.404578   22.056291 H          1 MOL1         0.0740
       6    H2      22.715669   17.481756   22.925589 H          1 MOL1         0.0740
       7    C3      20.639755   18.163743   22.902849 C.3        1 MOL1        -0.1882
       8    H3      19.643829   17.703113   22.940535 H          1 MOL1         0.0742
       9    H4      20.737341   18.790439   23.800086 H          1 MOL1         0.0742
      10    C4      20.773632   19.041066   21.636578 C.3        1 MOL1        -0.1880
      11    H5      20.623597   18.423798   20.740219 H          1 MOL1         0.0742
      12    H6      21.799659   19.429449   21.578359 H          1 MOL1         0.0742
      13    C5      19.794584   20.238702   21.610250 C.3        1 MOL1        -0.1880
      14    H7      19.947071   20.858474   22.504432 H          1 MOL1         0.0742
      15    H8      20.042730   20.872060   20.747575 H          1 MOL1         0.0742
      16    C6      18.310213   19.819610   21.513820 C.3        1 MOL1        -0.1856
      17    H9      18.018901   19.250192   22.406153 H          1 MOL1         0.0742
      18    H10     18.167618   19.156684   20.649296 H          1 MOL1         0.0742
      19    C7      17.384537   21.045253   21.377300 C.3        1 MOL1        -0.2871
      20    H11     17.622421   21.618949   20.471960 H          1 MOL1         0.0754
      21    H12     17.486829   21.712597   22.243079 H          1 MOL1         0.0754
      22    H13     16.334493   20.731601   21.313280 H          1 MOL1         0.0754
@<TRIPOS>BOND
    1     1     2    1
    2     1     3    2
    3     1     4    1
    4     4     5    1
    5     4     6    1
    6     4     7    1
    7     7     8    1
    8     7     9    1
    9     7    10    1
   10    10    11    1
   11    10    12    1
   12    10    13    1
   13    13    14    1
   14    13    15    1
   15    13    16    1
   16    16    17    1
   17    16    18    1
   18    16    19    1
   19    19    20    1
   20    19    21    1
   21    19    22    1
@<TRIPOS>SUBSTRUCTURE
       1 MOL1            1 RESIDUE      1      MOL     
@<SCITEGIC>MOL_PROPERTY
VConf Rank
SciTegic.value.IntegerValue
747

@<SCITEGIC>MOL_PROPERTY
Conf_Id
SciTegic.value.IntegerValue
50

@<SCITEGIC>MOL_PROPERTY
Delta U+W
SciTegic.value.DoubleValue
-0.486

@<SCITEGIC>MOL_PROPERTY
U+W
SciTegic.value.DoubleValue
-53.646

@<SCITEGIC>MOL_PROPERTY
Grad RMS
SciTegic.value.DoubleValue
0.000000

@<SCITEGIC>MOL_PROPERTY
U
SciTegic.value.DoubleValue
7.026

@<SCITEGIC>MOL_PROPERTY
W
SciTegic.value.DoubleValue
-60.672

@<SCITEGIC>MOL_PROPERTY
W(PB)
SciTegic.value.DoubleValue
-62.964

@<SCITEGIC>MOL_PROPERTY
W(SA)
SciTegic.value.DoubleValue
2.292

@<SCITEGIC>MOL_PROPERTY
Valence
SciTegic.value.DoubleValue
7.637

@<SCITEGIC>MOL_PROPERTY
Coulomb
SciTegic.value.DoubleValue
-1.488

@<SCITEGIC>MOL_PROPERTY
VdW
SciTegic.value.DoubleValue
0.877

@<SCITEGIC>MOL_PROPERTY
VdW6
SciTegic.value.DoubleValue
-7.165

@<SCITEGIC>MOL_PROPERTY
VdW12
SciTegic.value.DoubleValue
8.043

@<SCITEGIC>MOL_PROPERTY
Bond
SciTegic.value.DoubleValue
0.134

@<SCITEGIC>MOL_PROPERTY
Angle
SciTegic.value.DoubleValue
2.513

@<SCITEGIC>MOL_PROPERTY
Pdih
SciTegic.value.DoubleValue
4.990

@<SCITEGIC>MOL_PROPERTY
Idih
SciTegic.value.DoubleValue
0.001

@<SCITEGIC>MOL_PROPERTY
Tether
SciTegic.value.DoubleValue
0.000

@<TRIPOS>MOLECULE
guest-s21_confgen4.mol2 : confsearch ligand conformer 748
          22          21           1
SMALL
USER_CHARGES
 
@<TRIPOS>ATOM
       1    C1      21.015096   20.621357   25.385282 C.2        1 MOL1         0.6145
       2    O1      21.376685   21.778367   25.301294 O.co2      1 MOL1        -0.6735
       3    O2      21.615843   19.772410   26.013651 O.co2      1 MOL1        -0.6735
       4    C2      19.748601   20.207306   24.644417 C.3        1 MOL1        -0.1985
       5    H1      19.064384   21.064256   24.634543 H          1 MOL1         0.0740
       6    H2      19.262227   19.410486   25.219890 H          1 MOL1         0.0740
       7    C3      20.027003   19.727865   23.198413 C.3        1 MOL1        -0.1882
       8    H3      20.521950   20.533226   22.638303 H          1 MOL1         0.0742
       9    H4      20.728574   18.884048   23.233605 H          1 MOL1         0.0742
      10    C4      18.727016   19.310262   22.472665 C.3        1 MOL1        -0.1880
      11    H5      18.010988   20.142355   22.516118 H          1 MOL1         0.0742
      12    H6      18.259454   18.469792   23.003688 H          1 MOL1         0.0742
      13    C5      18.944677   18.928648   20.989238 C.3        1 MOL1        -0.1880
      14    H7      17.962610   18.769978   20.523090 H          1 MOL1         0.0742
      15    H8      19.408599   19.770288   20.456931 H          1 MOL1         0.0742
      16    C6      19.801089   17.656359   20.799161 C.3        1 MOL1        -0.1856
      17    H9      19.366168   16.827409   21.374393 H          1 MOL1         0.0742
      18    H10     20.814294   17.820347   21.188885 H          1 MOL1         0.0742
      19    C7      19.894690   17.254747   19.313340 C.3        1 MOL1        -0.2871
      20    H11     20.351905   18.056171   18.718311 H          1 MOL1         0.0754
      21    H12     18.899814   17.044868   18.899178 H          1 MOL1         0.0754
      22    H13     20.508201   16.352210   19.194599 H          1 MOL1         0.0754
@<TRIPOS>BOND
    1     1     2    1
    2     1     3    2
    3     1     4    1
    4     4     5    1
    5     4     6    1
    6     4     7    1
    7     7     8    1
    8     7     9    1
    9     7    10    1
   10    10    11    1
   11    10    12    1
   12    10    13    1
   13    13    14    1
   14    13    15    1
   15    13    16    1
   16    16    17    1
   17    16    18    1
   18    16    19    1
   19    19    20    1
   20    19    21    1
   21    19    22    1
@<TRIPOS>SUBSTRUCTURE
       1 MOL1            1 RESIDUE      1      MOL     
@<SCITEGIC>MOL_PROPERTY
VConf Rank
SciTegic.value.IntegerValue
748

@<SCITEGIC>MOL_PROPERTY
Conf_Id
SciTegic.value.IntegerValue
51

@<SCITEGIC>MOL_PROPERTY
Delta U+W
SciTegic.value.DoubleValue
-0.517

@<SCITEGIC>MOL_PROPERTY
U+W
SciTegic.value.DoubleValue
-53.677

@<SCITEGIC>MOL_PROPERTY
Grad RMS
SciTegic.value.DoubleValue
0.000000

@<SCITEGIC>MOL_PROPERTY
U
SciTegic.value.DoubleValue
7.026

@<SCITEGIC>MOL_PROPERTY
W
SciTegic.value.DoubleValue
-60.703

@<SCITEGIC>MOL_PROPERTY
W(PB)
SciTegic.value.DoubleValue
-63.007

@<SCITEGIC>MOL_PROPERTY
W(SA)
SciTegic.value.DoubleValue
2.304

@<SCITEGIC>MOL_PROPERTY
Valence
SciTegic.value.DoubleValue
7.638

@<SCITEGIC>MOL_PROPERTY
Coulomb
SciTegic.value.DoubleValue
-1.488

@<SCITEGIC>MOL_PROPERTY
VdW
SciTegic.value.DoubleValue
0.877

@<SCITEGIC>MOL_PROPERTY
VdW6
SciTegic.value.DoubleValue
-7.165

@<SCITEGIC>MOL_PROPERTY
VdW12
SciTegic.value.DoubleValue
8.042

@<SCITEGIC>MOL_PROPERTY
Bond
SciTegic.value.DoubleValue
0.134

@<SCITEGIC>MOL_PROPERTY
Angle
SciTegic.value.DoubleValue
2.513

@<SCITEGIC>MOL_PROPERTY
Pdih
SciTegic.value.DoubleValue
4.990

@<SCITEGIC>MOL_PROPERTY
Idih
SciTegic.value.DoubleValue
0.001

@<SCITEGIC>MOL_PROPERTY
Tether
SciTegic.value.DoubleValue
0.000

@<TRIPOS>MOLECULE
guest-s21_confgen4.mol2 : confsearch ligand conformer 749
          22          21           1
SMALL
USER_CHARGES
 
@<TRIPOS>ATOM
       1    C1      23.444461   18.907881   22.354562 C.2        1 MOL1         0.6145
       2    O1      23.910012   20.029629   22.397531 O.co2      1 MOL1        -0.6735
       3    O2      23.632678   18.068484   23.212919 O.co2      1 MOL1        -0.6735
       4    C2      22.592728   18.528771   21.146274 C.3        1 MOL1        -0.1985
       5    H1      22.543915   17.435002   21.081511 H          1 MOL1         0.0740
       6    H2      23.120963   18.876441   20.250655 H          1 MOL1         0.0740
       7    C3      21.162653   19.128218   21.169557 C.3        1 MOL1        -0.1882
       8    H3      21.227682   20.221241   21.262958 H          1 MOL1         0.0742
       9    H4      20.673906   18.921622   20.207794 H          1 MOL1         0.0742
      10    C4      20.296918   18.555703   22.314247 C.3        1 MOL1        -0.1880
      11    H5      20.770971   18.773520   23.281324 H          1 MOL1         0.0742
      12    H6      20.245912   17.461965   22.223956 H          1 MOL1         0.0742
      13    C5      18.868923   19.142269   22.299373 C.3        1 MOL1        -0.1880
      14    H7      18.920773   20.236003   22.389735 H          1 MOL1         0.0742
      15    H8      18.391686   18.923262   21.334314 H          1 MOL1         0.0742
      16    C6      18.003989   18.571573   23.442719 C.3        1 MOL1        -0.1856
      17    H9      18.477436   18.790344   24.409925 H          1 MOL1         0.0742
      18    H10     17.948439   17.477671   23.354652 H          1 MOL1         0.0742
      19    C7      16.578954   19.160064   23.425058 C.3        1 MOL1        -0.2871
      20    H11     16.603190   20.251314   23.543324 H          1 MOL1         0.0754
      21    H12     15.978265   18.743661   24.244123 H          1 MOL1         0.0754
      22    H13     16.070179   18.928788   22.480043 H          1 MOL1         0.0754
@<TRIPOS>BOND
    1     1     2    1
    2     1     3    2
    3     1     4    1
    4     4     5    1
    5     4     6    1
    6     4     7    1
    7     7     8    1
    8     7     9    1
    9     7    10    1
   10    10    11    1
   11    10    12    1
   12    10    13    1
   13    13    14    1
   14    13    15    1
   15    13    16    1
   16    16    17    1
   17    16    18    1
   18    16    19    1
   19    19    20    1
   20    19    21    1
   21    19    22    1
@<TRIPOS>SUBSTRUCTURE
       1 MOL1            1 RESIDUE      1      MOL     
@<SCITEGIC>MOL_PROPERTY
VConf Rank
SciTegic.value.IntegerValue
749

@<SCITEGIC>MOL_PROPERTY
Conf_Id
SciTegic.value.IntegerValue
43

@<SCITEGIC>MOL_PROPERTY
Delta U+W
SciTegic.value.DoubleValue
-0.129

@<SCITEGIC>MOL_PROPERTY
U+W
SciTegic.value.DoubleValue
-53.289

@<SCITEGIC>MOL_PROPERTY
Grad RMS
SciTegic.value.DoubleValue
0.000000

@<SCITEGIC>MOL_PROPERTY
U
SciTegic.value.DoubleValue
7.937

@<SCITEGIC>MOL_PROPERTY
W
SciTegic.value.DoubleValue
-61.225

@<SCITEGIC>MOL_PROPERTY
W(PB)
SciTegic.value.DoubleValue
-63.523

@<SCITEGIC>MOL_PROPERTY
W(SA)
SciTegic.value.DoubleValue
2.297

@<SCITEGIC>MOL_PROPERTY
Valence
SciTegic.value.DoubleValue
7.358

@<SCITEGIC>MOL_PROPERTY
Coulomb
SciTegic.value.DoubleValue
-0.022

@<SCITEGIC>MOL_PROPERTY
VdW
SciTegic.value.DoubleValue
0.601

@<SCITEGIC>MOL_PROPERTY
VdW6
SciTegic.value.DoubleValue
-7.363

@<SCITEGIC>MOL_PROPERTY
VdW12
SciTegic.value.DoubleValue
7.964

@<SCITEGIC>MOL_PROPERTY
Bond
SciTegic.value.DoubleValue
0.121

@<SCITEGIC>MOL_PROPERTY
Angle
SciTegic.value.DoubleValue
2.425

@<SCITEGIC>MOL_PROPERTY
Pdih
SciTegic.value.DoubleValue
4.811

@<SCITEGIC>MOL_PROPERTY
Idih
SciTegic.value.DoubleValue
0.000

@<SCITEGIC>MOL_PROPERTY
Tether
SciTegic.value.DoubleValue
0.000

@<TRIPOS>MOLECULE
guest-s21_confgen4.mol2 : confsearch ligand conformer 750
          22          21           1
SMALL
USER_CHARGES
 
@<TRIPOS>ATOM
       1    C1      20.087801   20.059652   19.043776 C.2        1 MOL1         0.6145
       2    O1      19.280025   19.547204   18.294244 O.co2      1 MOL1        -0.6735
       3    O2      21.288642   19.898524   18.949910 O.co2      1 MOL1        -0.6735
       4    C2      19.564305   20.969600   20.151510 C.3        1 MOL1        -0.1985
       5    H1      18.818053   21.636036   19.703165 H          1 MOL1         0.0740
       6    H2      20.387357   21.604426   20.501488 H          1 MOL1         0.0740
       7    C3      18.929461   20.209513   21.344925 C.3        1 MOL1        -0.1882
       8    H3      18.460236   20.936568   22.021505 H          1 MOL1         0.0742
       9    H4      18.126029   19.557321   20.975067 H          1 MOL1         0.0742
      10    C4      19.961793   19.372603   22.133253 C.3        1 MOL1        -0.1880
      11    H5      20.769340   20.026800   22.489494 H          1 MOL1         0.0742
      12    H6      20.423519   18.630992   21.466747 H          1 MOL1         0.0742
      13    C5      19.314629   18.650128   23.334363 C.3        1 MOL1        -0.1880
      14    H7      18.854655   19.389880   24.003877 H          1 MOL1         0.0742
      15    H8      18.507238   17.996111   22.977306 H          1 MOL1         0.0742
      16    C6      20.344817   17.813519   24.121667 C.3        1 MOL1        -0.1856
      17    H9      21.153268   18.464752   24.481897 H          1 MOL1         0.0742
      18    H10     20.805794   17.071103   23.455467 H          1 MOL1         0.0742
      19    C7      19.694833   17.093049   25.319917 C.3        1 MOL1        -0.2871
      20    H11     19.252754   17.814638   26.019396 H          1 MOL1         0.0754
      21    H12     20.441135   16.503338   25.867967 H          1 MOL1         0.0754
      22    H13     18.902705   16.410480   24.985203 H          1 MOL1         0.0754
@<TRIPOS>BOND
    1     1     2    1
    2     1     3    2
    3     1     4    1
    4     4     5    1
    5     4     6    1
    6     4     7    1
    7     7     8    1
    8     7     9    1
    9     7    10    1
   10    10    11    1
   11    10    12    1
   12    10    13    1
   13    13    14    1
   14    13    15    1
   15    13    16    1
   16    16    17    1
   17    16    18    1
   18    16    19    1
   19    19    20    1
   20    19    21    1
   21    19    22    1
@<TRIPOS>SUBSTRUCTURE
       1 MOL1            1 RESIDUE      1      MOL     
@<SCITEGIC>MOL_PROPERTY
VConf Rank
SciTegic.value.IntegerValue
750

@<SCITEGIC>MOL_PROPERTY
Conf_Id
SciTegic.value.IntegerValue
44

@<SCITEGIC>MOL_PROPERTY
Delta U+W
SciTegic.value.DoubleValue
-0.155

@<SCITEGIC>MOL_PROPERTY
U+W
SciTegic.value.DoubleValue
-53.314

@<SCITEGIC>MOL_PROPERTY
Grad RMS
SciTegic.value.DoubleValue
0.000000

@<SCITEGIC>MOL_PROPERTY
U
SciTegic.value.DoubleValue
7.937

@<SCITEGIC>MOL_PROPERTY
W
SciTegic.value.DoubleValue
-61.252

@<SCITEGIC>MOL_PROPERTY
W(PB)
SciTegic.value.DoubleValue
-63.556

@<SCITEGIC>MOL_PROPERTY
W(SA)
SciTegic.value.DoubleValue
2.304

@<SCITEGIC>MOL_PROPERTY
Valence
SciTegic.value.DoubleValue
7.358

@<SCITEGIC>MOL_PROPERTY
Coulomb
SciTegic.value.DoubleValue
-0.021

@<SCITEGIC>MOL_PROPERTY
VdW
SciTegic.value.DoubleValue
0.600

@<SCITEGIC>MOL_PROPERTY
VdW6
SciTegic.value.DoubleValue
-7.363

@<SCITEGIC>MOL_PROPERTY
VdW12
SciTegic.value.DoubleValue
7.964

@<SCITEGIC>MOL_PROPERTY
Bond
SciTegic.value.DoubleValue
0.121

@<SCITEGIC>MOL_PROPERTY
Angle
SciTegic.value.DoubleValue
2.425

@<SCITEGIC>MOL_PROPERTY
Pdih
SciTegic.value.DoubleValue
4.811

@<SCITEGIC>MOL_PROPERTY
Idih
SciTegic.value.DoubleValue
0.001

@<SCITEGIC>MOL_PROPERTY
Tether
SciTegic.value.DoubleValue
0.000

@<TRIPOS>MOLECULE
guest-s21_confgen4.mol2 : confsearch ligand conformer 751
          22          21           1
SMALL
USER_CHARGES
 
@<TRIPOS>ATOM
       1    C1      22.037175   21.403346   21.043685 C.2        1 MOL1         0.6145
       2    O1      21.543633   22.067841   20.153860 O.co2      1 MOL1        -0.6735
       3    O2      23.117392   20.854103   20.952417 O.co2      1 MOL1        -0.6735
       4    C2      21.265220   21.268416   22.353337 C.3        1 MOL1        -0.1985
       5    H1      20.909451   22.268520   22.627657 H          1 MOL1         0.0740
       6    H2      21.961349   20.952453   23.139760 H          1 MOL1         0.0740
       7    C3      20.061438   20.293101   22.280568 C.3        1 MOL1        -0.1882
       8    H3      19.485356   20.382467   23.210250 H          1 MOL1         0.0742
       9    H4      19.394330   20.598989   21.462766 H          1 MOL1         0.0742
      10    C4      20.499908   18.822747   22.078044 C.3        1 MOL1        -0.1880
      11    H5      21.132498   18.505447   22.918253 H          1 MOL1         0.0742
      12    H6      21.125224   18.753956   21.177357 H          1 MOL1         0.0742
      13    C5      19.313950   17.841395   21.922232 C.3        1 MOL1        -0.1880
      14    H7      18.681505   18.159211   21.082039 H          1 MOL1         0.0742
      15    H8      19.713363   16.853842   21.653699 H          1 MOL1         0.0742
      16    C6      18.454235   17.703415   23.199055 C.3        1 MOL1        -0.1856
      17    H9      17.978842   18.662898   23.441147 H          1 MOL1         0.0742
      18    H10     19.095647   17.438780   24.050966 H          1 MOL1         0.0742
      19    C7      17.359412   16.630787   23.030015 C.3        1 MOL1        -0.2871
      20    H11     16.686246   16.884527   22.200650 H          1 MOL1         0.0754
      21    H12     16.755791   16.547038   23.943082 H          1 MOL1         0.0754
      22    H13     17.801092   15.646875   22.824606 H          1 MOL1         0.0754
@<TRIPOS>BOND
    1     1     2    1
    2     1     3    2
    3     1     4    1
    4     4     5    1
    5     4     6    1
    6     4     7    1
    7     7     8    1
    8     7     9    1
    9     7    10    1
   10    10    11    1
   11    10    12    1
   12    10    13    1
   13    13    14    1
   14    13    15    1
   15    13    16    1
   16    16    17    1
   17    16    18    1
   18    16    19    1
   19    19    20    1
   20    19    21    1
   21    19    22    1
@<TRIPOS>SUBSTRUCTURE
       1 MOL1            1 RESIDUE      1      MOL     
@<SCITEGIC>MOL_PROPERTY
VConf Rank
SciTegic.value.IntegerValue
751

@<SCITEGIC>MOL_PROPERTY
Conf_Id
SciTegic.value.IntegerValue
53

@<SCITEGIC>MOL_PROPERTY
Delta U+W
SciTegic.value.DoubleValue
0.723

@<SCITEGIC>MOL_PROPERTY
U+W
SciTegic.value.DoubleValue
-52.436

@<SCITEGIC>MOL_PROPERTY
Grad RMS
SciTegic.value.DoubleValue
0.000000

@<SCITEGIC>MOL_PROPERTY
U
SciTegic.value.DoubleValue
8.587

@<SCITEGIC>MOL_PROPERTY
W
SciTegic.value.DoubleValue
-61.022

@<SCITEGIC>MOL_PROPERTY
W(PB)
SciTegic.value.DoubleValue
-63.285

@<SCITEGIC>MOL_PROPERTY
W(SA)
SciTegic.value.DoubleValue
2.263

@<SCITEGIC>MOL_PROPERTY
Valence
SciTegic.value.DoubleValue
7.933

@<SCITEGIC>MOL_PROPERTY
Coulomb
SciTegic.value.DoubleValue
-0.124

@<SCITEGIC>MOL_PROPERTY
VdW
SciTegic.value.DoubleValue
0.778

@<SCITEGIC>MOL_PROPERTY
VdW6
SciTegic.value.DoubleValue
-7.981

@<SCITEGIC>MOL_PROPERTY
VdW12
SciTegic.value.DoubleValue
8.759

@<SCITEGIC>MOL_PROPERTY
Bond
SciTegic.value.DoubleValue
0.160

@<SCITEGIC>MOL_PROPERTY
Angle
SciTegic.value.DoubleValue
2.698

@<SCITEGIC>MOL_PROPERTY
Pdih
SciTegic.value.DoubleValue
5.074

@<SCITEGIC>MOL_PROPERTY
Idih
SciTegic.value.DoubleValue
0.001

@<SCITEGIC>MOL_PROPERTY
Tether
SciTegic.value.DoubleValue
0.000

@<TRIPOS>MOLECULE
guest-s21_confgen4.mol2 : confsearch ligand conformer 752
          22          21           1
SMALL
USER_CHARGES
 
@<TRIPOS>ATOM
       1    C1      22.998400   19.353252   23.098719 C.2        1 MOL1         0.6145
       2    O1      23.095005   19.964813   24.144295 O.co2      1 MOL1        -0.6735
       3    O2      23.949715   18.896162   22.496514 O.co2      1 MOL1        -0.6735
       4    C2      21.605407   19.127647   22.521942 C.3        1 MOL1        -0.1985
       5    H1      21.690748   19.089264   21.429456 H          1 MOL1         0.0740
       6    H2      20.996285   20.002485   22.775631 H          1 MOL1         0.0740
       7    C3      20.937903   17.834227   23.053577 C.3        1 MOL1        -0.1882
       8    H3      21.631850   16.994748   22.908203 H          1 MOL1         0.0742
       9    H4      20.788080   17.924648   24.138304 H          1 MOL1         0.0742
      10    C4      19.592085   17.482884   22.370935 C.3        1 MOL1        -0.1880
      11    H5      19.245555   16.530240   22.794412 H          1 MOL1         0.0742
      12    H6      19.750045   17.293325   21.300388 H          1 MOL1         0.0742
      13    C5      18.472365   18.535441   22.571077 C.3        1 MOL1        -0.1880
      14    H7      17.514125   18.008433   22.676114 H          1 MOL1         0.0742
      15    H8      18.627805   19.077302   23.514045 H          1 MOL1         0.0742
      16    C6      18.347318   19.529036   21.392991 C.3        1 MOL1        -0.1856
      17    H9      18.134992   18.976509   20.467343 H          1 MOL1         0.0742
      18    H10     19.293891   20.058606   21.231993 H          1 MOL1         0.0742
      19    C7      17.226627   20.559068   21.638792 C.3        1 MOL1        -0.2871
      20    H11     16.255904   20.061659   21.763752 H          1 MOL1         0.0754
      21    H12     17.145700   21.252279   20.791477 H          1 MOL1         0.0754
      22    H13     17.428183   21.149838   22.541966 H          1 MOL1         0.0754
@<TRIPOS>BOND
    1     1     2    1
    2     1     3    2
    3     1     4    1
    4     4     5    1
    5     4     6    1
    6     4     7    1
    7     7     8    1
    8     7     9    1
    9     7    10    1
   10    10    11    1
   11    10    12    1
   12    10    13    1
   13    13    14    1
   14    13    15    1
   15    13    16    1
   16    16    17    1
   17    16    18    1
   18    16    19    1
   19    19    20    1
   20    19    21    1
   21    19    22    1
@<TRIPOS>SUBSTRUCTURE
       1 MOL1            1 RESIDUE      1      MOL     
@<SCITEGIC>MOL_PROPERTY
VConf Rank
SciTegic.value.IntegerValue
752

@<SCITEGIC>MOL_PROPERTY
Conf_Id
SciTegic.value.IntegerValue
5

@<SCITEGIC>MOL_PROPERTY
Delta U+W
SciTegic.value.DoubleValue
2.167

@<SCITEGIC>MOL_PROPERTY
U+W
SciTegic.value.DoubleValue
-50.993

@<SCITEGIC>MOL_PROPERTY
Grad RMS
SciTegic.value.DoubleValue
0.000000

@<SCITEGIC>MOL_PROPERTY
U
SciTegic.value.DoubleValue
10.045

@<SCITEGIC>MOL_PROPERTY
W
SciTegic.value.DoubleValue
-61.037

@<SCITEGIC>MOL_PROPERTY
W(PB)
SciTegic.value.DoubleValue
-63.303

@<SCITEGIC>MOL_PROPERTY
W(SA)
SciTegic.value.DoubleValue
2.266

@<SCITEGIC>MOL_PROPERTY
Valence
SciTegic.value.DoubleValue
10.100

@<SCITEGIC>MOL_PROPERTY
Coulomb
SciTegic.value.DoubleValue
-0.883

@<SCITEGIC>MOL_PROPERTY
VdW
SciTegic.value.DoubleValue
0.828

@<SCITEGIC>MOL_PROPERTY
VdW6
SciTegic.value.DoubleValue
-8.177

@<SCITEGIC>MOL_PROPERTY
VdW12
SciTegic.value.DoubleValue
9.005

@<SCITEGIC>MOL_PROPERTY
Bond
SciTegic.value.DoubleValue
0.182

@<SCITEGIC>MOL_PROPERTY
Angle
SciTegic.value.DoubleValue
2.988

@<SCITEGIC>MOL_PROPERTY
Pdih
SciTegic.value.DoubleValue
6.930

@<SCITEGIC>MOL_PROPERTY
Idih
SciTegic.value.DoubleValue
0.001

@<SCITEGIC>MOL_PROPERTY
Tether
SciTegic.value.DoubleValue
0.000

@<TRIPOS>MOLECULE
guest-s21_confgen4.mol2 : confsearch ligand conformer 753
          22          21           1
SMALL
USER_CHARGES
 
@<TRIPOS>ATOM
       1    C1      19.953454   15.823353   23.651692 C.2        1 MOL1         0.6145
       2    O1      18.821851   15.382862   23.696555 O.co2      1 MOL1        -0.6735
       3    O2      20.921409   15.237211   24.094506 O.co2      1 MOL1        -0.6735
       4    C2      20.167754   17.196895   23.026027 C.3        1 MOL1        -0.1985
       5    H1      19.436441   17.310417   22.217927 H          1 MOL1         0.0740
       6    H2      21.166360   17.213458   22.573486 H          1 MOL1         0.0740
       7    C3      20.023312   18.351661   24.049156 C.3        1 MOL1        -0.1882
       8    H3      18.993553   18.368366   24.432002 H          1 MOL1         0.0742
       9    H4      20.668748   18.139458   24.912756 H          1 MOL1         0.0742
      10    C4      20.392763   19.749211   23.491454 C.3        1 MOL1        -0.1880
      11    H5      21.451022   19.770486   23.197194 H          1 MOL1         0.0742
      12    H6      20.297964   20.469485   24.315569 H          1 MOL1         0.0742
      13    C5      19.499589   20.234412   22.321612 C.3        1 MOL1        -0.1880
      14    H7      18.501481   19.781358   22.395678 H          1 MOL1         0.0742
      15    H8      19.351290   21.318222   22.423380 H          1 MOL1         0.0742
      16    C6      20.112766   19.962374   20.928498 C.3        1 MOL1        -0.1856
      17    H9      20.306083   18.891461   20.793819 H          1 MOL1         0.0742
      18    H10     21.084264   20.469443   20.849325 H          1 MOL1         0.0742
      19    C7      19.187988   20.455805   19.797727 C.3        1 MOL1        -0.2871
      20    H11     18.218409   19.941879   19.831713 H          1 MOL1         0.0754
      21    H12     19.639895   20.262270   18.816219 H          1 MOL1         0.0754
      22    H13     19.007073   21.535491   19.880678 H          1 MOL1         0.0754
@<TRIPOS>BOND
    1     1     2    1
    2     1     3    2
    3     1     4    1
    4     4     5    1
    5     4     6    1
    6     4     7    1
    7     7     8    1
    8     7     9    1
    9     7    10    1
   10    10    11    1
   11    10    12    1
   12    10    13    1
   13    13    14    1
   14    13    15    1
   15    13    16    1
   16    16    17    1
   17    16    18    1
   18    16    19    1
   19    19    20    1
   20    19    21    1
   21    19    22    1
@<TRIPOS>SUBSTRUCTURE
       1 MOL1            1 RESIDUE      1      MOL     
@<SCITEGIC>MOL_PROPERTY
VConf Rank
SciTegic.value.IntegerValue
753

@<SCITEGIC>MOL_PROPERTY
Conf_Id
SciTegic.value.IntegerValue
6

@<SCITEGIC>MOL_PROPERTY
Delta U+W
SciTegic.value.DoubleValue
2.118

@<SCITEGIC>MOL_PROPERTY
U+W
SciTegic.value.DoubleValue
-51.042

@<SCITEGIC>MOL_PROPERTY
Grad RMS
SciTegic.value.DoubleValue
0.000000

@<SCITEGIC>MOL_PROPERTY
U
SciTegic.value.DoubleValue
10.045

@<SCITEGIC>MOL_PROPERTY
W
SciTegic.value.DoubleValue
-61.086

@<SCITEGIC>MOL_PROPERTY
W(PB)
SciTegic.value.DoubleValue
-63.356

@<SCITEGIC>MOL_PROPERTY
W(SA)
SciTegic.value.DoubleValue
2.270

@<SCITEGIC>MOL_PROPERTY
Valence
SciTegic.value.DoubleValue
10.100

@<SCITEGIC>MOL_PROPERTY
Coulomb
SciTegic.value.DoubleValue
-0.883

@<SCITEGIC>MOL_PROPERTY
VdW
SciTegic.value.DoubleValue
0.828

@<SCITEGIC>MOL_PROPERTY
VdW6
SciTegic.value.DoubleValue
-8.177

@<SCITEGIC>MOL_PROPERTY
VdW12
SciTegic.value.DoubleValue
9.004

@<SCITEGIC>MOL_PROPERTY
Bond
SciTegic.value.DoubleValue
0.182

@<SCITEGIC>MOL_PROPERTY
Angle
SciTegic.value.DoubleValue
2.988

@<SCITEGIC>MOL_PROPERTY
Pdih
SciTegic.value.DoubleValue
6.930

@<SCITEGIC>MOL_PROPERTY
Idih
SciTegic.value.DoubleValue
0.001

@<SCITEGIC>MOL_PROPERTY
Tether
SciTegic.value.DoubleValue
0.000

@<TRIPOS>MOLECULE
guest-s21_confgen4.mol2 : confsearch ligand conformer 754
          22          21           1
SMALL
USER_CHARGES
 
@<TRIPOS>ATOM
       1    C1      18.875320   16.833199   24.073620 C.2        1 MOL1         0.6145
       2    O1      17.688590   16.972302   24.296818 O.co2      1 MOL1        -0.6735
       3    O2      19.734708   16.940290   24.926286 O.co2      1 MOL1        -0.6735
       4    C2      19.306013   16.433264   22.663651 C.3        1 MOL1        -0.1985
       5    H1      18.865011   15.447684   22.474760 H          1 MOL1         0.0740
       6    H2      20.394290   16.298165   22.648030 H          1 MOL1         0.0740
       7    C3      18.868161   17.407873   21.534270 C.3        1 MOL1        -0.1882
       8    H3      18.897506   16.859361   20.583115 H          1 MOL1         0.0742
       9    H4      17.819890   17.703567   21.680104 H          1 MOL1         0.0742
      10    C4      19.758446   18.665922   21.380589 C.3        1 MOL1        -0.1880
      11    H5      19.451924   19.191873   20.466043 H          1 MOL1         0.0742
      12    H6      20.803154   18.362959   21.226872 H          1 MOL1         0.0742
      13    C5      19.672214   19.648303   22.570546 C.3        1 MOL1        -0.1880
      14    H7      18.618932   19.871170   22.789576 H          1 MOL1         0.0742
      15    H8      20.096070   19.183421   23.469598 H          1 MOL1         0.0742
      16    C6      20.429559   20.961742   22.282010 C.3        1 MOL1        -0.1856
      17    H9      20.009833   21.443851   21.388278 H          1 MOL1         0.0742
      18    H10     21.482897   20.740284   22.060991 H          1 MOL1         0.0742
      19    C7      20.350004   21.936606   23.473952 C.3        1 MOL1        -0.2871
      20    H11     19.307664   22.199580   23.696981 H          1 MOL1         0.0754
      21    H12     20.894051   22.864003   23.252656 H          1 MOL1         0.0754
      22    H13     20.791247   21.491113   24.375253 H          1 MOL1         0.0754
@<TRIPOS>BOND
    1     1     2    1
    2     1     3    2
    3     1     4    1
    4     4     5    1
    5     4     6    1
    6     4     7    1
    7     7     8    1
    8     7     9    1
    9     7    10    1
   10    10    11    1
   11    10    12    1
   12    10    13    1
   13    13    14    1
   14    13    15    1
   15    13    16    1
   16    16    17    1
   17    16    18    1
   18    16    19    1
   19    19    20    1
   20    19    21    1
   21    19    22    1
@<TRIPOS>SUBSTRUCTURE
       1 MOL1            1 RESIDUE      1      MOL     
@<SCITEGIC>MOL_PROPERTY
VConf Rank
SciTegic.value.IntegerValue
754

@<SCITEGIC>MOL_PROPERTY
Conf_Id
SciTegic.value.IntegerValue
8

@<SCITEGIC>MOL_PROPERTY
Delta U+W
SciTegic.value.DoubleValue
1.886

@<SCITEGIC>MOL_PROPERTY
U+W
SciTegic.value.DoubleValue
-51.274

@<SCITEGIC>MOL_PROPERTY
Grad RMS
SciTegic.value.DoubleValue
0.000000

@<SCITEGIC>MOL_PROPERTY
U
SciTegic.value.DoubleValue
11.237

@<SCITEGIC>MOL_PROPERTY
W
SciTegic.value.DoubleValue
-62.510

@<SCITEGIC>MOL_PROPERTY
W(PB)
SciTegic.value.DoubleValue
-64.777

@<SCITEGIC>MOL_PROPERTY
W(SA)
SciTegic.value.DoubleValue
2.267

@<SCITEGIC>MOL_PROPERTY
Valence
SciTegic.value.DoubleValue
9.029

@<SCITEGIC>MOL_PROPERTY
Coulomb
SciTegic.value.DoubleValue
1.667

@<SCITEGIC>MOL_PROPERTY
VdW
SciTegic.value.DoubleValue
0.540

@<SCITEGIC>MOL_PROPERTY
VdW6
SciTegic.value.DoubleValue
-8.825

@<SCITEGIC>MOL_PROPERTY
VdW12
SciTegic.value.DoubleValue
9.365

@<SCITEGIC>MOL_PROPERTY
Bond
SciTegic.value.DoubleValue
0.186

@<SCITEGIC>MOL_PROPERTY
Angle
SciTegic.value.DoubleValue
3.195

@<SCITEGIC>MOL_PROPERTY
Pdih
SciTegic.value.DoubleValue
5.642

@<SCITEGIC>MOL_PROPERTY
Idih
SciTegic.value.DoubleValue
0.007

@<SCITEGIC>MOL_PROPERTY
Tether
SciTegic.value.DoubleValue
0.000

@<TRIPOS>MOLECULE
guest-s21_confgen4.mol2 : confsearch ligand conformer 755
          22          21           1
SMALL
USER_CHARGES
 
@<TRIPOS>ATOM
       1    C1      19.576933   21.826036   23.561232 C.2        1 MOL1         0.6145
       2    O1      19.132703   22.209800   22.497207 O.co2      1 MOL1        -0.6735
       3    O2      20.479191   22.384865   24.153640 O.co2      1 MOL1        -0.6735
       4    C2      18.949270   20.592935   24.205178 C.3        1 MOL1        -0.1985
       5    H1      17.996087   20.383002   23.707103 H          1 MOL1         0.0740
       6    H2      18.705070   20.855625   25.241075 H          1 MOL1         0.0740
       7    C3      19.863025   19.336699   24.196813 C.3        1 MOL1        -0.1882
       8    H3      20.771931   19.560538   24.772237 H          1 MOL1         0.0742
       9    H4      19.356933   18.519284   24.727881 H          1 MOL1         0.0742
      10    C4      20.276181   18.849080   22.786047 C.3        1 MOL1        -0.1880
      11    H5      20.989693   18.024539   22.908634 H          1 MOL1         0.0742
      12    H6      20.814788   19.649125   22.259973 H          1 MOL1         0.0742
      13    C5      19.081218   18.373697   21.923773 C.3        1 MOL1        -0.1880
      14    H7      18.528324   17.587209   22.455032 H          1 MOL1         0.0742
      15    H8      18.382112   19.208040   21.782156 H          1 MOL1         0.0742
      16    C6      19.498480   17.859770   20.525999 C.3        1 MOL1        -0.1856
      17    H9      20.065231   18.639421   19.998444 H          1 MOL1         0.0742
      18    H10     18.591272   17.681119   19.932506 H          1 MOL1         0.0742
      19    C7      20.324224   16.555598   20.571772 C.3        1 MOL1        -0.2871
      20    H11     21.298665   16.713385   21.050225 H          1 MOL1         0.0754
      21    H12     20.510398   16.184058   19.555802 H          1 MOL1         0.0754
      22    H13     19.790776   15.772005   21.125409 H          1 MOL1         0.0754
@<TRIPOS>BOND
    1     1     2    1
    2     1     3    2
    3     1     4    1
    4     4     5    1
    5     4     6    1
    6     4     7    1
    7     7     8    1
    8     7     9    1
    9     7    10    1
   10    10    11    1
   11    10    12    1
   12    10    13    1
   13    13    14    1
   14    13    15    1
   15    13    16    1
   16    16    17    1
   17    16    18    1
   18    16    19    1
   19    19    20    1
   20    19    21    1
   21    19    22    1
@<TRIPOS>SUBSTRUCTURE
       1 MOL1            1 RESIDUE      1      MOL     
@<SCITEGIC>MOL_PROPERTY
VConf Rank
SciTegic.value.IntegerValue
755

@<SCITEGIC>MOL_PROPERTY
Conf_Id
SciTegic.value.IntegerValue
93

@<SCITEGIC>MOL_PROPERTY
Delta U+W
SciTegic.value.DoubleValue
1.836

@<SCITEGIC>MOL_PROPERTY
U+W
SciTegic.value.DoubleValue
-51.323

@<SCITEGIC>MOL_PROPERTY
Grad RMS
SciTegic.value.DoubleValue
0.000000

@<SCITEGIC>MOL_PROPERTY
U
SciTegic.value.DoubleValue
10.427

@<SCITEGIC>MOL_PROPERTY
W
SciTegic.value.DoubleValue
-61.751

@<SCITEGIC>MOL_PROPERTY
W(PB)
SciTegic.value.DoubleValue
-63.980

@<SCITEGIC>MOL_PROPERTY
W(SA)
SciTegic.value.DoubleValue
2.230

@<SCITEGIC>MOL_PROPERTY
Valence
SciTegic.value.DoubleValue
8.446

@<SCITEGIC>MOL_PROPERTY
Coulomb
SciTegic.value.DoubleValue
1.306

@<SCITEGIC>MOL_PROPERTY
VdW
SciTegic.value.DoubleValue
0.676

@<SCITEGIC>MOL_PROPERTY
VdW6
SciTegic.value.DoubleValue
-8.928

@<SCITEGIC>MOL_PROPERTY
VdW12
SciTegic.value.DoubleValue
9.604

@<SCITEGIC>MOL_PROPERTY
Bond
SciTegic.value.DoubleValue
0.209

@<SCITEGIC>MOL_PROPERTY
Angle
SciTegic.value.DoubleValue
3.066

@<SCITEGIC>MOL_PROPERTY
Pdih
SciTegic.value.DoubleValue
5.170

@<SCITEGIC>MOL_PROPERTY
Idih
SciTegic.value.DoubleValue
0.001

@<SCITEGIC>MOL_PROPERTY
Tether
SciTegic.value.DoubleValue
0.000

@<TRIPOS>MOLECULE
guest-s21_confgen4.mol2 : confsearch ligand conformer 756
          22          21           1
SMALL
USER_CHARGES
 
@<TRIPOS>ATOM
       1    C1      16.647013   18.730122   22.415659 C.2        1 MOL1         0.6145
       2    O1      15.864117   19.248565   23.187408 O.co2      1 MOL1        -0.6735
       3    O2      16.809303   17.528906   22.329010 O.co2      1 MOL1        -0.6735
       4    C2      17.446680   19.637542   21.484914 C.3        1 MOL1        -0.1985
       5    H1      16.735049   20.319338   21.004852 H          1 MOL1         0.0740
       6    H2      17.877673   19.026935   20.683595 H          1 MOL1         0.0740
       7    C3      18.549361   20.466957   22.198578 C.3        1 MOL1        -0.1882
       8    H3      19.032292   21.129168   21.467425 H          1 MOL1         0.0742
       9    H4      18.070642   21.123389   22.938344 H          1 MOL1         0.0742
      10    C4      19.632148   19.620745   22.912880 C.3        1 MOL1        -0.1880
      11    H5      19.161816   18.980390   23.671602 H          1 MOL1         0.0742
      12    H6      20.294780   20.307075   23.454974 H          1 MOL1         0.0742
      13    C5      20.470830   18.749585   21.945856 C.3        1 MOL1        -0.1880
      14    H7      19.808176   18.047107   21.423985 H          1 MOL1         0.0742
      15    H8      20.926903   19.383934   21.173786 H          1 MOL1         0.0742
      16    C6      21.570817   17.927372   22.657186 C.3        1 MOL1        -0.1856
      17    H9      22.017714   17.235735   21.929796 H          1 MOL1         0.0742
      18    H10     21.118892   17.303454   23.440685 H          1 MOL1         0.0742
      19    C7      22.692150   18.797556   23.265628 C.3        1 MOL1        -0.2871
      20    H11     22.316356   19.421807   24.085652 H          1 MOL1         0.0754
      21    H12     23.134968   19.455158   22.506305 H          1 MOL1         0.0754
      22    H13     23.491501   18.163971   23.671220 H          1 MOL1         0.0754
@<TRIPOS>BOND
    1     1     2    1
    2     1     3    2
    3     1     4    1
    4     4     5    1
    5     4     6    1
    6     4     7    1
    7     7     8    1
    8     7     9    1
    9     7    10    1
   10    10    11    1
   11    10    12    1
   12    10    13    1
   13    13    14    1
   14    13    15    1
   15    13    16    1
   16    16    17    1
   17    16    18    1
   18    16    19    1
   19    19    20    1
   20    19    21    1
   21    19    22    1
@<TRIPOS>SUBSTRUCTURE
       1 MOL1            1 RESIDUE      1      MOL     
@<SCITEGIC>MOL_PROPERTY
VConf Rank
SciTegic.value.IntegerValue
756

@<SCITEGIC>MOL_PROPERTY
Conf_Id
SciTegic.value.IntegerValue
70

@<SCITEGIC>MOL_PROPERTY
Delta U+W
SciTegic.value.DoubleValue
1.803

@<SCITEGIC>MOL_PROPERTY
U+W
SciTegic.value.DoubleValue
-51.356

@<SCITEGIC>MOL_PROPERTY
Grad RMS
SciTegic.value.DoubleValue
0.000000

@<SCITEGIC>MOL_PROPERTY
U
SciTegic.value.DoubleValue
10.428

@<SCITEGIC>MOL_PROPERTY
W
SciTegic.value.DoubleValue
-61.784

@<SCITEGIC>MOL_PROPERTY
W(PB)
SciTegic.value.DoubleValue
-64.014

@<SCITEGIC>MOL_PROPERTY
W(SA)
SciTegic.value.DoubleValue
2.230

@<SCITEGIC>MOL_PROPERTY
Valence
SciTegic.value.DoubleValue
8.445

@<SCITEGIC>MOL_PROPERTY
Coulomb
SciTegic.value.DoubleValue
1.306

@<SCITEGIC>MOL_PROPERTY
VdW
SciTegic.value.DoubleValue
0.676

@<SCITEGIC>MOL_PROPERTY
VdW6
SciTegic.value.DoubleValue
-8.929

@<SCITEGIC>MOL_PROPERTY
VdW12
SciTegic.value.DoubleValue
9.605

@<SCITEGIC>MOL_PROPERTY
Bond
SciTegic.value.DoubleValue
0.209

@<SCITEGIC>MOL_PROPERTY
Angle
SciTegic.value.DoubleValue
3.066

@<SCITEGIC>MOL_PROPERTY
Pdih
SciTegic.value.DoubleValue
5.170

@<SCITEGIC>MOL_PROPERTY
Idih
SciTegic.value.DoubleValue
0.001

@<SCITEGIC>MOL_PROPERTY
Tether
SciTegic.value.DoubleValue
0.000

@<TRIPOS>MOLECULE
guest-s21_confgen4.mol2 : confsearch ligand conformer 757
          22          21           1
SMALL
USER_CHARGES
 
@<TRIPOS>ATOM
       1    C1      19.957692   17.083407   19.692983 C.2        1 MOL1         0.6145
       2    O1      18.808516   16.779329   19.440309 O.co2      1 MOL1        -0.6735
       3    O2      20.839840   16.271520   19.891814 O.co2      1 MOL1        -0.6735
       4    C2      20.314872   18.566349   19.742010 C.3        1 MOL1        -0.1985
       5    H1      19.851009   19.044847   18.871430 H          1 MOL1         0.0740
       6    H2      21.399928   18.669362   19.620018 H          1 MOL1         0.0740
       7    C3      19.850021   19.283443   21.036102 C.3        1 MOL1        -0.1882
       8    H3      20.028847   20.361907   20.930266 H          1 MOL1         0.0742
       9    H4      18.765717   19.150206   21.146390 H          1 MOL1         0.0742
      10    C4      20.583778   18.765162   22.296082 C.3        1 MOL1        -0.1880
      11    H5      21.667724   18.826793   22.128439 H          1 MOL1         0.0742
      12    H6      20.354882   17.701615   22.450283 H          1 MOL1         0.0742
      13    C5      20.239266   19.557701   23.579329 C.3        1 MOL1        -0.1880
      14    H7      20.890993   19.206110   24.390825 H          1 MOL1         0.0742
      15    H8      20.474602   20.620384   23.430377 H          1 MOL1         0.0742
      16    C6      18.765413   19.406868   24.018846 C.3        1 MOL1        -0.1856
      17    H9      18.515161   18.341456   24.116511 H          1 MOL1         0.0742
      18    H10     18.097784   19.824008   23.253585 H          1 MOL1         0.0742
      19    C7      18.499260   20.120618   25.359539 C.3        1 MOL1        -0.2871
      20    H11     19.124085   19.701468   26.159076 H          1 MOL1         0.0754
      21    H12     17.448467   20.007036   25.656175 H          1 MOL1         0.0754
      22    H13     18.715591   21.194207   25.282216 H          1 MOL1         0.0754
@<TRIPOS>BOND
    1     1     2    1
    2     1     3    2
    3     1     4    1
    4     4     5    1
    5     4     6    1
    6     4     7    1
    7     7     8    1
    8     7     9    1
    9     7    10    1
   10    10    11    1
   11    10    12    1
   12    10    13    1
   13    13    14    1
   14    13    15    1
   15    13    16    1
   16    16    17    1
   17    16    18    1
   18    16    19    1
   19    19    20    1
   20    19    21    1
   21    19    22    1
@<TRIPOS>SUBSTRUCTURE
       1 MOL1            1 RESIDUE      1      MOL     
@<SCITEGIC>MOL_PROPERTY
VConf Rank
SciTegic.value.IntegerValue
757

@<SCITEGIC>MOL_PROPERTY
Conf_Id
SciTegic.value.IntegerValue
85

@<SCITEGIC>MOL_PROPERTY
Delta U+W
SciTegic.value.DoubleValue
0.707

@<SCITEGIC>MOL_PROPERTY
U+W
SciTegic.value.DoubleValue
-52.452

@<SCITEGIC>MOL_PROPERTY
Grad RMS
SciTegic.value.DoubleValue
0.000000

@<SCITEGIC>MOL_PROPERTY
U
SciTegic.value.DoubleValue
8.925

@<SCITEGIC>MOL_PROPERTY
W
SciTegic.value.DoubleValue
-61.378

@<SCITEGIC>MOL_PROPERTY
W(PB)
SciTegic.value.DoubleValue
-63.661

@<SCITEGIC>MOL_PROPERTY
W(SA)
SciTegic.value.DoubleValue
2.283

@<SCITEGIC>MOL_PROPERTY
Valence
SciTegic.value.DoubleValue
7.881

@<SCITEGIC>MOL_PROPERTY
Coulomb
SciTegic.value.DoubleValue
0.349

@<SCITEGIC>MOL_PROPERTY
VdW
SciTegic.value.DoubleValue
0.695

@<SCITEGIC>MOL_PROPERTY
VdW6
SciTegic.value.DoubleValue
-8.049

@<SCITEGIC>MOL_PROPERTY
VdW12
SciTegic.value.DoubleValue
8.743

@<SCITEGIC>MOL_PROPERTY
Bond
SciTegic.value.DoubleValue
0.156

@<SCITEGIC>MOL_PROPERTY
Angle
SciTegic.value.DoubleValue
2.660

@<SCITEGIC>MOL_PROPERTY
Pdih
SciTegic.value.DoubleValue
5.064

@<SCITEGIC>MOL_PROPERTY
Idih
SciTegic.value.DoubleValue
0.001

@<SCITEGIC>MOL_PROPERTY
Tether
SciTegic.value.DoubleValue
0.000

@<TRIPOS>MOLECULE
guest-s21_confgen4.mol2 : confsearch ligand conformer 758
          22          21           1
SMALL
USER_CHARGES
 
@<TRIPOS>ATOM
       1    C1      17.546311   17.696033   24.471039 C.2        1 MOL1         0.6145
       2    O1      17.008659   16.691426   24.048386 O.co2      1 MOL1        -0.6735
       3    O2      17.965035   17.807216   25.606504 O.co2      1 MOL1        -0.6735
       4    C2      17.683300   18.892490   23.533425 C.3        1 MOL1        -0.1985
       5    H1      17.365053   19.781786   24.090078 H          1 MOL1         0.0740
       6    H2      16.978657   18.769385   22.702053 H          1 MOL1         0.0740
       7    C3      19.119730   19.109634   22.990097 C.3        1 MOL1        -0.1882
       8    H3      19.147512   20.070843   22.461692 H          1 MOL1         0.0742
       9    H4      19.821331   19.184140   23.832405 H          1 MOL1         0.0742
      10    C4      19.568799   17.984727   22.028847 C.3        1 MOL1        -0.1880
      11    H5      18.912510   17.973958   21.148013 H          1 MOL1         0.0742
      12    H6      19.434331   17.012840   22.523009 H          1 MOL1         0.0742
      13    C5      21.044934   18.091211   21.570359 C.3        1 MOL1        -0.1880
      14    H7      21.715116   18.009352   22.437009 H          1 MOL1         0.0742
      15    H8      21.259585   17.214633   20.943939 H          1 MOL1         0.0742
      16    C6      21.380107   19.362350   20.750744 C.3        1 MOL1        -0.1856
      17    H9      20.486051   19.722882   20.223589 H          1 MOL1         0.0742
      18    H10     22.107203   19.095857   19.971250 H          1 MOL1         0.0742
      19    C7      21.991396   20.494653   21.605873 C.3        1 MOL1        -0.2871
      20    H11     21.309112   20.821785   22.398575 H          1 MOL1         0.0754
      21    H12     22.221106   21.366823   20.980277 H          1 MOL1         0.0754
      22    H13     22.925884   20.165323   22.078483 H          1 MOL1         0.0754
@<TRIPOS>BOND
    1     1     2    1
    2     1     3    2
    3     1     4    1
    4     4     5    1
    5     4     6    1
    6     4     7    1
    7     7     8    1
    8     7     9    1
    9     7    10    1
   10    10    11    1
   11    10    12    1
   12    10    13    1
   13    13    14    1
   14    13    15    1
   15    13    16    1
   16    16    17    1
   17    16    18    1
   18    16    19    1
   19    19    20    1
   20    19    21    1
   21    19    22    1
@<TRIPOS>SUBSTRUCTURE
       1 MOL1            1 RESIDUE      1      MOL     
@<SCITEGIC>MOL_PROPERTY
VConf Rank
SciTegic.value.IntegerValue
758

@<SCITEGIC>MOL_PROPERTY
Conf_Id
SciTegic.value.IntegerValue
82

@<SCITEGIC>MOL_PROPERTY
Delta U+W
SciTegic.value.DoubleValue
3.438

@<SCITEGIC>MOL_PROPERTY
U+W
SciTegic.value.DoubleValue
-49.721

@<SCITEGIC>MOL_PROPERTY
Grad RMS
SciTegic.value.DoubleValue
0.000000

@<SCITEGIC>MOL_PROPERTY
U
SciTegic.value.DoubleValue
11.773

@<SCITEGIC>MOL_PROPERTY
W
SciTegic.value.DoubleValue
-61.495

@<SCITEGIC>MOL_PROPERTY
W(PB)
SciTegic.value.DoubleValue
-63.749

@<SCITEGIC>MOL_PROPERTY
W(SA)
SciTegic.value.DoubleValue
2.254

@<SCITEGIC>MOL_PROPERTY
Valence
SciTegic.value.DoubleValue
10.419

@<SCITEGIC>MOL_PROPERTY
Coulomb
SciTegic.value.DoubleValue
0.565

@<SCITEGIC>MOL_PROPERTY
VdW
SciTegic.value.DoubleValue
0.789

@<SCITEGIC>MOL_PROPERTY
VdW6
SciTegic.value.DoubleValue
-8.847

@<SCITEGIC>MOL_PROPERTY
VdW12
SciTegic.value.DoubleValue
9.636

@<SCITEGIC>MOL_PROPERTY
Bond
SciTegic.value.DoubleValue
0.200

@<SCITEGIC>MOL_PROPERTY
Angle
SciTegic.value.DoubleValue
3.187

@<SCITEGIC>MOL_PROPERTY
Pdih
SciTegic.value.DoubleValue
7.032

@<SCITEGIC>MOL_PROPERTY
Idih
SciTegic.value.DoubleValue
0.001

@<SCITEGIC>MOL_PROPERTY
Tether
SciTegic.value.DoubleValue
0.000

@<TRIPOS>MOLECULE
guest-s21_confgen4.mol2 : confsearch ligand conformer 759
          22          21           1
SMALL
USER_CHARGES
 
@<TRIPOS>ATOM
       1    C1      17.826618   17.302460   24.421505 C.2        1 MOL1         0.6145
       2    O1      16.716171   17.337047   23.928874 O.co2      1 MOL1        -0.6735
       3    O2      18.318320   16.299669   24.900648 O.co2      1 MOL1        -0.6735
       4    C2      18.636907   18.595255   24.460406 C.3        1 MOL1        -0.1985
       5    H1      19.427978   18.491153   25.212885 H          1 MOL1         0.0740
       6    H2      17.967763   19.389686   24.811286 H          1 MOL1         0.0740
       7    C3      19.248022   19.000571   23.093677 C.3        1 MOL1        -0.1882
       8    H3      18.451135   19.055162   22.339178 H          1 MOL1         0.0742
       9    H4      19.670494   20.008654   23.189555 H          1 MOL1         0.0742
      10    C4      20.352570   18.026050   22.623182 C.3        1 MOL1        -0.1880
      11    H5      19.958114   17.000815   22.634955 H          1 MOL1         0.0742
      12    H6      21.183820   18.042747   23.341128 H          1 MOL1         0.0742
      13    C5      20.894101   18.316906   21.200975 C.3        1 MOL1        -0.1880
      14    H7      21.624186   17.532371   20.959423 H          1 MOL1         0.0742
      15    H8      20.087830   18.211194   20.462274 H          1 MOL1         0.0742
      16    C6      21.592495   19.690365   21.040503 C.3        1 MOL1        -0.1856
      17    H9      22.442781   19.573795   20.354410 H          1 MOL1         0.0742
      18    H10     22.017110   20.016619   21.999916 H          1 MOL1         0.0742
      19    C7      20.662942   20.782783   20.466412 C.3        1 MOL1        -0.2871
      20    H11     20.291788   20.496767   19.473675 H          1 MOL1         0.0754
      21    H12     21.204836   21.731541   20.361397 H          1 MOL1         0.0754
      22    H13     19.795985   20.962272   21.112224 H          1 MOL1         0.0754
@<TRIPOS>BOND
    1     1     2    1
    2     1     3    2
    3     1     4    1
    4     4     5    1
    5     4     6    1
    6     4     7    1
    7     7     8    1
    8     7     9    1
    9     7    10    1
   10    10    11    1
   11    10    12    1
   12    10    13    1
   13    13    14    1
   14    13    15    1
   15    13    16    1
   16    16    17    1
   17    16    18    1
   18    16    19    1
   19    19    20    1
   20    19    21    1
   21    19    22    1
@<TRIPOS>SUBSTRUCTURE
       1 MOL1            1 RESIDUE      1      MOL     
@<SCITEGIC>MOL_PROPERTY
VConf Rank
SciTegic.value.IntegerValue
759

@<SCITEGIC>MOL_PROPERTY
Conf_Id
SciTegic.value.IntegerValue
94

@<SCITEGIC>MOL_PROPERTY
Delta U+W
SciTegic.value.DoubleValue
3.471

@<SCITEGIC>MOL_PROPERTY
U+W
SciTegic.value.DoubleValue
-49.688

@<SCITEGIC>MOL_PROPERTY
Grad RMS
SciTegic.value.DoubleValue
0.000000

@<SCITEGIC>MOL_PROPERTY
U
SciTegic.value.DoubleValue
11.773

@<SCITEGIC>MOL_PROPERTY
W
SciTegic.value.DoubleValue
-61.461

@<SCITEGIC>MOL_PROPERTY
W(PB)
SciTegic.value.DoubleValue
-63.710

@<SCITEGIC>MOL_PROPERTY
W(SA)
SciTegic.value.DoubleValue
2.248

@<SCITEGIC>MOL_PROPERTY
Valence
SciTegic.value.DoubleValue
10.419

@<SCITEGIC>MOL_PROPERTY
Coulomb
SciTegic.value.DoubleValue
0.566

@<SCITEGIC>MOL_PROPERTY
VdW
SciTegic.value.DoubleValue
0.789

@<SCITEGIC>MOL_PROPERTY
VdW6
SciTegic.value.DoubleValue
-8.847

@<SCITEGIC>MOL_PROPERTY
VdW12
SciTegic.value.DoubleValue
9.636

@<SCITEGIC>MOL_PROPERTY
Bond
SciTegic.value.DoubleValue
0.200

@<SCITEGIC>MOL_PROPERTY
Angle
SciTegic.value.DoubleValue
3.187

@<SCITEGIC>MOL_PROPERTY
Pdih
SciTegic.value.DoubleValue
7.032

@<SCITEGIC>MOL_PROPERTY
Idih
SciTegic.value.DoubleValue
0.001

@<SCITEGIC>MOL_PROPERTY
Tether
SciTegic.value.DoubleValue
0.000

@<TRIPOS>MOLECULE
guest-s21_confgen4.mol2 : confsearch ligand conformer 760
          22          21           1
SMALL
USER_CHARGES
 
@<TRIPOS>ATOM
       1    C1      21.452049   21.761661   23.459069 C.2        1 MOL1         0.6145
       2    O1      21.150847   22.938057   23.504552 O.co2      1 MOL1        -0.6735
       3    O2      22.595040   21.363768   23.350319 O.co2      1 MOL1        -0.6735
       4    C2      20.332391   20.729061   23.522596 C.3        1 MOL1        -0.1985
       5    H1      19.531539   21.132650   24.153456 H          1 MOL1         0.0740
       6    H2      20.727087   19.839397   24.026329 H          1 MOL1         0.0740
       7    C3      19.776243   20.359964   22.122981 C.3        1 MOL1        -0.1882
       8    H3      19.465155   21.281738   21.612435 H          1 MOL1         0.0742
       9    H4      20.579393   19.929695   21.510082 H          1 MOL1         0.0742
      10    C4      18.567937   19.391541   22.173634 C.3        1 MOL1        -0.1880
      11    H5      18.203895   19.224228   21.151404 H          1 MOL1         0.0742
      12    H6      17.742298   19.882681   22.706220 H          1 MOL1         0.0742
      13    C5      18.846727   18.022434   22.848164 C.3        1 MOL1        -0.1880
      14    H7      19.052187   18.178026   23.915323 H          1 MOL1         0.0742
      15    H8      17.929469   17.419469   22.807959 H          1 MOL1         0.0742
      16    C6      20.007174   17.206214   22.227621 C.3        1 MOL1        -0.1856
      17    H9      20.126858   16.276408   22.800374 H          1 MOL1         0.0742
      18    H10     20.953593   17.752875   22.334649 H          1 MOL1         0.0742
      19    C7      19.776200   16.849259   20.743357 C.3        1 MOL1        -0.2871
      20    H11     18.826056   16.315719   20.611007 H          1 MOL1         0.0754
      21    H12     20.582334   16.202556   20.373672 H          1 MOL1         0.0754
      22    H13     19.756688   17.748964   20.115578 H          1 MOL1         0.0754
@<TRIPOS>BOND
    1     1     2    1
    2     1     3    2
    3     1     4    1
    4     4     5    1
    5     4     6    1
    6     4     7    1
    7     7     8    1
    8     7     9    1
    9     7    10    1
   10    10    11    1
   11    10    12    1
   12    10    13    1
   13    13    14    1
   14    13    15    1
   15    13    16    1
   16    16    17    1
   17    16    18    1
   18    16    19    1
   19    19    20    1
   20    19    21    1
   21    19    22    1
@<TRIPOS>SUBSTRUCTURE
       1 MOL1            1 RESIDUE      1      MOL     
@<SCITEGIC>MOL_PROPERTY
VConf Rank
SciTegic.value.IntegerValue
760

@<SCITEGIC>MOL_PROPERTY
Conf_Id
SciTegic.value.IntegerValue
56

@<SCITEGIC>MOL_PROPERTY
Delta U+W
SciTegic.value.DoubleValue
0.853

@<SCITEGIC>MOL_PROPERTY
U+W
SciTegic.value.DoubleValue
-52.307

@<SCITEGIC>MOL_PROPERTY
Grad RMS
SciTegic.value.DoubleValue
0.000000

@<SCITEGIC>MOL_PROPERTY
U
SciTegic.value.DoubleValue
8.874

@<SCITEGIC>MOL_PROPERTY
W
SciTegic.value.DoubleValue
-61.181

@<SCITEGIC>MOL_PROPERTY
W(PB)
SciTegic.value.DoubleValue
-63.413

@<SCITEGIC>MOL_PROPERTY
W(SA)
SciTegic.value.DoubleValue
2.232

@<SCITEGIC>MOL_PROPERTY
Valence
SciTegic.value.DoubleValue
8.479

@<SCITEGIC>MOL_PROPERTY
Coulomb
SciTegic.value.DoubleValue
-0.357

@<SCITEGIC>MOL_PROPERTY
VdW
SciTegic.value.DoubleValue
0.753

@<SCITEGIC>MOL_PROPERTY
VdW6
SciTegic.value.DoubleValue
-9.081

@<SCITEGIC>MOL_PROPERTY
VdW12
SciTegic.value.DoubleValue
9.833

@<SCITEGIC>MOL_PROPERTY
Bond
SciTegic.value.DoubleValue
0.221

@<SCITEGIC>MOL_PROPERTY
Angle
SciTegic.value.DoubleValue
3.208

@<SCITEGIC>MOL_PROPERTY
Pdih
SciTegic.value.DoubleValue
5.050

@<SCITEGIC>MOL_PROPERTY
Idih
SciTegic.value.DoubleValue
0.000

@<SCITEGIC>MOL_PROPERTY
Tether
SciTegic.value.DoubleValue
0.000

@<TRIPOS>MOLECULE
guest-s21_confgen4.mol2 : confsearch ligand conformer 761
          22          21           1
SMALL
USER_CHARGES
 
@<TRIPOS>ATOM
       1    C1      18.309984   15.276548   22.963290 C.2        1 MOL1         0.6145
       2    O1      17.470464   15.718619   23.723672 O.co2      1 MOL1        -0.6735
       3    O2      18.424339   14.092367   22.717200 O.co2      1 MOL1        -0.6735
       4    C2      19.282665   16.230961   22.268658 C.3        1 MOL1        -0.1985
       5    H1      19.170856   16.082540   21.188177 H          1 MOL1         0.0740
       6    H2      20.297939   15.912645   22.532970 H          1 MOL1         0.0740
       7    C3      19.097412   17.732656   22.613622 C.3        1 MOL1        -0.1882
       8    H3      18.076365   18.043439   22.352156 H          1 MOL1         0.0742
       9    H4      19.204652   17.873430   23.698137 H          1 MOL1         0.0742
      10    C4      20.117601   18.622603   21.870842 C.3        1 MOL1        -0.1880
      11    H5      20.008491   18.480155   20.786899 H          1 MOL1         0.0742
      12    H6      21.137546   18.309946   22.133688 H          1 MOL1         0.0742
      13    C5      19.931635   20.115905   22.215475 C.3        1 MOL1        -0.1880
      14    H7      18.911776   20.429025   21.952850 H          1 MOL1         0.0742
      15    H8      20.040695   20.258854   23.299357 H          1 MOL1         0.0742
      16    C6      20.950757   21.005831   21.473502 C.3        1 MOL1        -0.1856
      17    H9      20.843249   20.867047   20.388764 H          1 MOL1         0.0742
      18    H10     21.972251   20.696806   21.735287 H          1 MOL1         0.0742
      19    C7      20.761758   22.496225   21.820403 C.3        1 MOL1        -0.2871
      20    H11     19.757719   22.840562   21.539789 H          1 MOL1         0.0754
      21    H12     21.494008   23.114057   21.284506 H          1 MOL1         0.0754
      22    H13     20.895247   22.669055   22.896376 H          1 MOL1         0.0754
@<TRIPOS>BOND
    1     1     2    1
    2     1     3    2
    3     1     4    1
    4     4     5    1
    5     4     6    1
    6     4     7    1
    7     7     8    1
    8     7     9    1
    9     7    10    1
   10    10    11    1
   11    10    12    1
   12    10    13    1
   13    13    14    1
   14    13    15    1
   15    13    16    1
   16    16    17    1
   17    16    18    1
   18    16    19    1
   19    19    20    1
   20    19    21    1
   21    19    22    1
@<TRIPOS>SUBSTRUCTURE
       1 MOL1            1 RESIDUE      1      MOL     
@<SCITEGIC>MOL_PROPERTY
VConf Rank
SciTegic.value.IntegerValue
761

@<SCITEGIC>MOL_PROPERTY
Conf_Id
SciTegic.value.IntegerValue
0

@<SCITEGIC>MOL_PROPERTY
Delta U+W
SciTegic.value.DoubleValue
0.000

@<SCITEGIC>MOL_PROPERTY
U+W
SciTegic.value.DoubleValue
-53.159

@<SCITEGIC>MOL_PROPERTY
Grad RMS
SciTegic.value.DoubleValue
0.000000

@<SCITEGIC>MOL_PROPERTY
U
SciTegic.value.DoubleValue
6.763

@<SCITEGIC>MOL_PROPERTY
W
SciTegic.value.DoubleValue
-59.922

@<SCITEGIC>MOL_PROPERTY
W(PB)
SciTegic.value.DoubleValue
-62.256

@<SCITEGIC>MOL_PROPERTY
W(SA)
SciTegic.value.DoubleValue
2.334

@<SCITEGIC>MOL_PROPERTY
Valence
SciTegic.value.DoubleValue
7.600

@<SCITEGIC>MOL_PROPERTY
Coulomb
SciTegic.value.DoubleValue
-2.139

@<SCITEGIC>MOL_PROPERTY
VdW
SciTegic.value.DoubleValue
1.302

@<SCITEGIC>MOL_PROPERTY
VdW6
SciTegic.value.DoubleValue
-6.786

@<SCITEGIC>MOL_PROPERTY
VdW12
SciTegic.value.DoubleValue
8.088

@<SCITEGIC>MOL_PROPERTY
Bond
SciTegic.value.DoubleValue
0.134

@<SCITEGIC>MOL_PROPERTY
Angle
SciTegic.value.DoubleValue
2.720

@<SCITEGIC>MOL_PROPERTY
Pdih
SciTegic.value.DoubleValue
4.746

@<SCITEGIC>MOL_PROPERTY
Idih
SciTegic.value.DoubleValue
0.000

@<SCITEGIC>MOL_PROPERTY
Tether
SciTegic.value.DoubleValue
0.000

@<TRIPOS>MOLECULE
guest-s21_confgen4.mol2 : confsearch ligand conformer 762
          22          21           1
SMALL
USER_CHARGES
 
@<TRIPOS>ATOM
       1    C1      21.924224   15.906699   23.659094 C.2        1 MOL1         0.6145
       2    O1      22.818433   15.518453   22.933775 O.co2      1 MOL1        -0.6735
       3    O2      21.296540   15.178779   24.402448 O.co2      1 MOL1        -0.6735
       4    C2      21.554323   17.385101   23.617711 C.3        1 MOL1        -0.1985
       5    H1      22.465008   17.958410   23.406447 H          1 MOL1         0.0740
       6    H2      21.211008   17.678530   24.617059 H          1 MOL1         0.0740
       7    C3      20.465569   17.703656   22.563583 C.3        1 MOL1        -0.1882
       8    H3      20.819359   17.392111   21.570937 H          1 MOL1         0.0742
       9    H4      19.565397   17.112241   22.781513 H          1 MOL1         0.0742
      10    C4      20.108918   19.205717   22.541403 C.3        1 MOL1        -0.1880
      11    H5      21.011112   19.794091   22.324524 H          1 MOL1         0.0742
      12    H6      19.756864   19.514163   23.535430 H          1 MOL1         0.0742
      13    C5      19.023393   19.520240   21.489735 C.3        1 MOL1        -0.1880
      14    H7      19.375066   19.211925   20.495556 H          1 MOL1         0.0742
      15    H8      18.121024   18.932044   21.706258 H          1 MOL1         0.0742
      16    C6      18.666400   21.021275   21.466955 C.3        1 MOL1        -0.1856
      17    H9      19.566288   21.612901   21.248648 H          1 MOL1         0.0742
      18    H10     18.312256   21.333031   22.459359 H          1 MOL1         0.0742
      19    C7      17.582099   21.331248   20.415504 C.3        1 MOL1        -0.2871
      20    H11     16.658935   20.776208   20.627889 H          1 MOL1         0.0754
      21    H12     17.922384   21.058021   19.408052 H          1 MOL1         0.0754
      22    H13     17.340676   22.402135   20.412851 H          1 MOL1         0.0754
@<TRIPOS>BOND
    1     1     2    1
    2     1     3    2
    3     1     4    1
    4     4     5    1
    5     4     6    1
    6     4     7    1
    7     7     8    1
    8     7     9    1
    9     7    10    1
   10    10    11    1
   11    10    12    1
   12    10    13    1
   13    13    14    1
   14    13    15    1
   15    13    16    1
   16    16    17    1
   17    16    18    1
   18    16    19    1
   19    19    20    1
   20    19    21    1
   21    19    22    1
@<TRIPOS>SUBSTRUCTURE
       1 MOL1            1 RESIDUE      1      MOL     
@<SCITEGIC>MOL_PROPERTY
VConf Rank
SciTegic.value.IntegerValue
762

@<SCITEGIC>MOL_PROPERTY
Conf_Id
SciTegic.value.IntegerValue
10

@<SCITEGIC>MOL_PROPERTY
Delta U+W
SciTegic.value.DoubleValue
-1.291

@<SCITEGIC>MOL_PROPERTY
U+W
SciTegic.value.DoubleValue
-54.451

@<SCITEGIC>MOL_PROPERTY
Grad RMS
SciTegic.value.DoubleValue
0.000000

@<SCITEGIC>MOL_PROPERTY
U
SciTegic.value.DoubleValue
5.779

@<SCITEGIC>MOL_PROPERTY
W
SciTegic.value.DoubleValue
-60.230

@<SCITEGIC>MOL_PROPERTY
W(PB)
SciTegic.value.DoubleValue
-62.557

@<SCITEGIC>MOL_PROPERTY
W(SA)
SciTegic.value.DoubleValue
2.328

@<SCITEGIC>MOL_PROPERTY
Valence
SciTegic.value.DoubleValue
7.101

@<SCITEGIC>MOL_PROPERTY
Coulomb
SciTegic.value.DoubleValue
-2.079

@<SCITEGIC>MOL_PROPERTY
VdW
SciTegic.value.DoubleValue
0.757

@<SCITEGIC>MOL_PROPERTY
VdW6
SciTegic.value.DoubleValue
-6.496

@<SCITEGIC>MOL_PROPERTY
VdW12
SciTegic.value.DoubleValue
7.253

@<SCITEGIC>MOL_PROPERTY
Bond
SciTegic.value.DoubleValue
0.100

@<SCITEGIC>MOL_PROPERTY
Angle
SciTegic.value.DoubleValue
2.262

@<SCITEGIC>MOL_PROPERTY
Pdih
SciTegic.value.DoubleValue
4.738

@<SCITEGIC>MOL_PROPERTY
Idih
SciTegic.value.DoubleValue
0.001

@<SCITEGIC>MOL_PROPERTY
Tether
SciTegic.value.DoubleValue
0.000

@<TRIPOS>MOLECULE
guest-s21_confgen4.mol2 : confsearch ligand conformer 763
          22          21           1
SMALL
USER_CHARGES
 
@<TRIPOS>ATOM
       1    C1      19.711475   20.905632   18.861534 C.2        1 MOL1         0.6145
       2    O1      19.237042   22.016495   18.993250 O.co2      1 MOL1        -0.6735
       3    O2      20.495819   20.608709   17.982274 O.co2      1 MOL1        -0.6735
       4    C2      19.317043   19.830355   19.867721 C.3        1 MOL1        -0.1985
       5    H1      19.321735   18.862662   19.351781 H          1 MOL1         0.0740
       6    H2      18.285368   20.023232   20.185686 H          1 MOL1         0.0740
       7    C3      20.255868   19.784324   21.098428 C.3        1 MOL1        -0.1882
       8    H3      21.286239   19.603884   20.761843 H          1 MOL1         0.0742
       9    H4      20.249715   20.763825   21.596516 H          1 MOL1         0.0742
      10    C4      19.835483   18.688205   22.101495 C.3        1 MOL1        -0.1880
      11    H5      19.844570   17.710075   21.601461 H          1 MOL1         0.0742
      12    H6      18.803158   18.873881   22.425526 H          1 MOL1         0.0742
      13    C5      20.773487   18.648806   23.329849 C.3        1 MOL1        -0.1880
      14    H7      21.809987   18.533318   22.984502 H          1 MOL1         0.0742
      15    H8      20.727886   19.609107   23.861523 H          1 MOL1         0.0742
      16    C6      20.452363   17.498327   24.311982 C.3        1 MOL1        -0.1856
      17    H9      21.230522   17.469182   25.087130 H          1 MOL1         0.0742
      18    H10     20.503208   16.535467   23.785080 H          1 MOL1         0.0742
      19    C7      19.075510   17.644380   24.995469 C.3        1 MOL1        -0.2871
      20    H11     18.933739   16.855380   25.745336 H          1 MOL1         0.0754
      21    H12     18.257007   17.562993   24.269431 H          1 MOL1         0.0754
      22    H13     18.990198   18.613406   25.504237 H          1 MOL1         0.0754
@<TRIPOS>BOND
    1     1     2    1
    2     1     3    2
    3     1     4    1
    4     4     5    1
    5     4     6    1
    6     4     7    1
    7     7     8    1
    8     7     9    1
    9     7    10    1
   10    10    11    1
   11    10    12    1
   12    10    13    1
   13    13    14    1
   14    13    15    1
   15    13    16    1
   16    16    17    1
   17    16    18    1
   18    16    19    1
   19    19    20    1
   20    19    21    1
   21    19    22    1
@<TRIPOS>SUBSTRUCTURE
       1 MOL1            1 RESIDUE      1      MOL     
@<SCITEGIC>MOL_PROPERTY
VConf Rank
SciTegic.value.IntegerValue
763

@<SCITEGIC>MOL_PROPERTY
Conf_Id
SciTegic.value.IntegerValue
37

@<SCITEGIC>MOL_PROPERTY
Delta U+W
SciTegic.value.DoubleValue
-0.345

@<SCITEGIC>MOL_PROPERTY
U+W
SciTegic.value.DoubleValue
-53.504

@<SCITEGIC>MOL_PROPERTY
Grad RMS
SciTegic.value.DoubleValue
0.000000

@<SCITEGIC>MOL_PROPERTY
U
SciTegic.value.DoubleValue
6.751

@<SCITEGIC>MOL_PROPERTY
W
SciTegic.value.DoubleValue
-60.255

@<SCITEGIC>MOL_PROPERTY
W(PB)
SciTegic.value.DoubleValue
-62.592

@<SCITEGIC>MOL_PROPERTY
W(SA)
SciTegic.value.DoubleValue
2.336

@<SCITEGIC>MOL_PROPERTY
Valence
SciTegic.value.DoubleValue
7.602

@<SCITEGIC>MOL_PROPERTY
Coulomb
SciTegic.value.DoubleValue
-1.744

@<SCITEGIC>MOL_PROPERTY
VdW
SciTegic.value.DoubleValue
0.894

@<SCITEGIC>MOL_PROPERTY
VdW6
SciTegic.value.DoubleValue
-7.110

@<SCITEGIC>MOL_PROPERTY
VdW12
SciTegic.value.DoubleValue
8.004

@<SCITEGIC>MOL_PROPERTY
Bond
SciTegic.value.DoubleValue
0.131

@<SCITEGIC>MOL_PROPERTY
Angle
SciTegic.value.DoubleValue
2.489

@<SCITEGIC>MOL_PROPERTY
Pdih
SciTegic.value.DoubleValue
4.982

@<SCITEGIC>MOL_PROPERTY
Idih
SciTegic.value.DoubleValue
0.001

@<SCITEGIC>MOL_PROPERTY
Tether
SciTegic.value.DoubleValue
0.000

@<TRIPOS>MOLECULE
guest-s21_confgen4.mol2 : confsearch ligand conformer 764
          22          21           1
SMALL
USER_CHARGES
 
@<TRIPOS>ATOM
       1    C1      21.409063   21.953448   24.166150 C.2        1 MOL1         0.6145
       2    O1      20.589457   22.625145   24.760725 O.co2      1 MOL1        -0.6735
       3    O2      22.476790   22.383417   23.776863 O.co2      1 MOL1        -0.6735
       4    C2      21.069805   20.496266   23.873343 C.3        1 MOL1        -0.1985
       5    H1      20.447305   20.119822   24.693977 H          1 MOL1         0.0740
       6    H2      22.003004   19.920354   23.883800 H          1 MOL1         0.0740
       7    C3      20.340952   20.308238   22.519986 C.3        1 MOL1        -0.1882
       8    H3      19.415407   20.900618   22.520782 H          1 MOL1         0.0742
       9    H4      20.971431   20.702343   21.710857 H          1 MOL1         0.0742
      10    C4      20.008910   18.825137   22.247024 C.3        1 MOL1        -0.1880
      11    H5      19.385371   18.439786   23.064258 H          1 MOL1         0.0742
      12    H6      20.936062   18.235868   22.244597 H          1 MOL1         0.0742
      13    C5      19.278042   18.643251   20.896834 C.3        1 MOL1        -0.1880
      14    H7      18.325531   19.190369   20.914747 H          1 MOL1         0.0742
      15    H8      19.882384   19.096793   20.099334 H          1 MOL1         0.0742
      16    C6      19.017238   17.162975   20.533411 C.3        1 MOL1        -0.1856
      17    H9      19.968607   16.613820   20.508198 H          1 MOL1         0.0742
      18    H10     18.605639   17.117223   19.515704 H          1 MOL1         0.0742
      19    C7      18.037213   16.460224   21.497725 C.3        1 MOL1        -0.2871
      20    H11     17.088441   17.008667   21.562362 H          1 MOL1         0.0754
      21    H12     18.457889   16.378929   22.507739 H          1 MOL1         0.0754
      22    H13     17.816685   15.443656   21.147188 H          1 MOL1         0.0754
@<TRIPOS>BOND
    1     1     2    1
    2     1     3    2
    3     1     4    1
    4     4     5    1
    5     4     6    1
    6     4     7    1
    7     7     8    1
    8     7     9    1
    9     7    10    1
   10    10    11    1
   11    10    12    1
   12    10    13    1
   13    13    14    1
   14    13    15    1
   15    13    16    1
   16    16    17    1
   17    16    18    1
   18    16    19    1
   19    19    20    1
   20    19    21    1
   21    19    22    1
@<TRIPOS>SUBSTRUCTURE
       1 MOL1            1 RESIDUE      1      MOL     
@<SCITEGIC>MOL_PROPERTY
VConf Rank
SciTegic.value.IntegerValue
764

@<SCITEGIC>MOL_PROPERTY
Conf_Id
SciTegic.value.IntegerValue
38

@<SCITEGIC>MOL_PROPERTY
Delta U+W
SciTegic.value.DoubleValue
-0.439

@<SCITEGIC>MOL_PROPERTY
U+W
SciTegic.value.DoubleValue
-53.598

@<SCITEGIC>MOL_PROPERTY
Grad RMS
SciTegic.value.DoubleValue
0.000000

@<SCITEGIC>MOL_PROPERTY
U
SciTegic.value.DoubleValue
6.751

@<SCITEGIC>MOL_PROPERTY
W
SciTegic.value.DoubleValue
-60.350

@<SCITEGIC>MOL_PROPERTY
W(PB)
SciTegic.value.DoubleValue
-62.659

@<SCITEGIC>MOL_PROPERTY
W(SA)
SciTegic.value.DoubleValue
2.309

@<SCITEGIC>MOL_PROPERTY
Valence
SciTegic.value.DoubleValue
7.602

@<SCITEGIC>MOL_PROPERTY
Coulomb
SciTegic.value.DoubleValue
-1.744

@<SCITEGIC>MOL_PROPERTY
VdW
SciTegic.value.DoubleValue
0.893

@<SCITEGIC>MOL_PROPERTY
VdW6
SciTegic.value.DoubleValue
-7.110

@<SCITEGIC>MOL_PROPERTY
VdW12
SciTegic.value.DoubleValue
8.004

@<SCITEGIC>MOL_PROPERTY
Bond
SciTegic.value.DoubleValue
0.131

@<SCITEGIC>MOL_PROPERTY
Angle
SciTegic.value.DoubleValue
2.489

@<SCITEGIC>MOL_PROPERTY
Pdih
SciTegic.value.DoubleValue
4.981

@<SCITEGIC>MOL_PROPERTY
Idih
SciTegic.value.DoubleValue
0.001

@<SCITEGIC>MOL_PROPERTY
Tether
SciTegic.value.DoubleValue
0.000

@<TRIPOS>MOLECULE
guest-s21_confgen4.mol2 : confsearch ligand conformer 765
          22          21           1
SMALL
USER_CHARGES
 
@<TRIPOS>ATOM
       1    C1      19.443561   16.001145   20.003235 C.2        1 MOL1         0.6145
       2    O1      20.372334   15.389158   19.513935 O.co2      1 MOL1        -0.6735
       3    O2      18.308825   15.960681   19.570488 O.co2      1 MOL1        -0.6735
       4    C2      19.722069   16.886148   21.212984 C.3        1 MOL1        -0.1985
       5    H1      20.532352   16.426309   21.791262 H          1 MOL1         0.0740
       6    H2      18.826399   16.878053   21.843991 H          1 MOL1         0.0740
       7    C3      20.102533   18.337303   20.819272 C.3        1 MOL1        -0.1882
       8    H3      20.941475   18.300091   20.110584 H          1 MOL1         0.0742
       9    H4      19.264850   18.804452   20.283219 H          1 MOL1         0.0742
      10    C4      20.511248   19.220360   22.022553 C.3        1 MOL1        -0.1880
      11    H5      20.895142   20.170929   21.630926 H          1 MOL1         0.0742
      12    H6      21.343154   18.746397   22.561032 H          1 MOL1         0.0742
      13    C5      19.346261   19.501401   23.003289 C.3        1 MOL1        -0.1880
      14    H7      18.513739   19.973732   22.464296 H          1 MOL1         0.0742
      15    H8      18.963381   18.551843   23.398033 H          1 MOL1         0.0742
      16    C6      19.754167   20.387644   24.203414 C.3        1 MOL1        -0.1856
      17    H9      20.594473   19.924202   24.738576 H          1 MOL1         0.0742
      18    H10     18.916728   20.424049   24.913778 H          1 MOL1         0.0742
      19    C7      20.125480   21.831936   23.802413 C.3        1 MOL1        -0.2871
      20    H11     21.034167   21.857498   23.188362 H          1 MOL1         0.0754
      21    H12     20.312196   22.441776   24.695806 H          1 MOL1         0.0754
      22    H13     19.312424   22.303728   23.235425 H          1 MOL1         0.0754
@<TRIPOS>BOND
    1     1     2    1
    2     1     3    2
    3     1     4    1
    4     4     5    1
    5     4     6    1
    6     4     7    1
    7     7     8    1
    8     7     9    1
    9     7    10    1
   10    10    11    1
   11    10    12    1
   12    10    13    1
   13    13    14    1
   14    13    15    1
   15    13    16    1
   16    16    17    1
   17    16    18    1
   18    16    19    1
   19    19    20    1
   20    19    21    1
   21    19    22    1
@<TRIPOS>SUBSTRUCTURE
       1 MOL1            1 RESIDUE      1      MOL     
@<SCITEGIC>MOL_PROPERTY
VConf Rank
SciTegic.value.IntegerValue
765

@<SCITEGIC>MOL_PROPERTY
Conf_Id
SciTegic.value.IntegerValue
60

@<SCITEGIC>MOL_PROPERTY
Delta U+W
SciTegic.value.DoubleValue
0.386

@<SCITEGIC>MOL_PROPERTY
U+W
SciTegic.value.DoubleValue
-52.773

@<SCITEGIC>MOL_PROPERTY
Grad RMS
SciTegic.value.DoubleValue
0.000000

@<SCITEGIC>MOL_PROPERTY
U
SciTegic.value.DoubleValue
7.689

@<SCITEGIC>MOL_PROPERTY
W
SciTegic.value.DoubleValue
-60.463

@<SCITEGIC>MOL_PROPERTY
W(PB)
SciTegic.value.DoubleValue
-62.772

@<SCITEGIC>MOL_PROPERTY
W(SA)
SciTegic.value.DoubleValue
2.309

@<SCITEGIC>MOL_PROPERTY
Valence
SciTegic.value.DoubleValue
8.197

@<SCITEGIC>MOL_PROPERTY
Coulomb
SciTegic.value.DoubleValue
-1.561

@<SCITEGIC>MOL_PROPERTY
VdW
SciTegic.value.DoubleValue
1.053

@<SCITEGIC>MOL_PROPERTY
VdW6
SciTegic.value.DoubleValue
-7.737

@<SCITEGIC>MOL_PROPERTY
VdW12
SciTegic.value.DoubleValue
8.790

@<SCITEGIC>MOL_PROPERTY
Bond
SciTegic.value.DoubleValue
0.181

@<SCITEGIC>MOL_PROPERTY
Angle
SciTegic.value.DoubleValue
2.780

@<SCITEGIC>MOL_PROPERTY
Pdih
SciTegic.value.DoubleValue
5.235

@<SCITEGIC>MOL_PROPERTY
Idih
SciTegic.value.DoubleValue
0.001

@<SCITEGIC>MOL_PROPERTY
Tether
SciTegic.value.DoubleValue
0.000

@<TRIPOS>MOLECULE
guest-s21_confgen4.mol2 : confsearch ligand conformer 766
          22          21           1
SMALL
USER_CHARGES
 
@<TRIPOS>ATOM
       1    C1      18.869722   15.394932   21.389127 C.2        1 MOL1         0.6145
       2    O1      17.694071   15.217661   21.640032 O.co2      1 MOL1        -0.6735
       3    O2      19.669808   14.492215   21.242420 O.co2      1 MOL1        -0.6735
       4    C2      19.373531   16.829263   21.274403 C.3        1 MOL1        -0.1985
       5    H1      18.560835   17.434715   20.857971 H          1 MOL1         0.0740
       6    H2      20.195586   16.843818   20.548850 H          1 MOL1         0.0740
       7    C3      19.848390   17.408305   22.632649 C.3        1 MOL1        -0.1882
       8    H3      19.004858   17.434433   23.336259 H          1 MOL1         0.0742
       9    H4      20.591420   16.724053   23.065259 H          1 MOL1         0.0742
      10    C4      20.480073   18.816548   22.520620 C.3        1 MOL1        -0.1880
      11    H5      21.317634   18.788699   21.810421 H          1 MOL1         0.0742
      12    H6      20.908488   19.074931   23.497362 H          1 MOL1         0.0742
      13    C5      19.470825   19.911600   22.096005 C.3        1 MOL1        -0.1880
      14    H7      19.043972   19.656095   21.117949 H          1 MOL1         0.0742
      15    H8      18.632373   19.938049   22.805230 H          1 MOL1         0.0742
      16    C6      20.101638   21.319665   21.988582 C.3        1 MOL1        -0.1856
      17    H9      19.360310   22.004399   21.554050 H          1 MOL1         0.0742
      18    H10     20.948224   21.294863   21.288603 H          1 MOL1         0.0742
      19    C7      20.565517   21.890259   23.346482 C.3        1 MOL1        -0.2871
      20    H11     19.742974   21.892391   24.073491 H          1 MOL1         0.0754
      21    H12     20.914610   22.924260   23.228606 H          1 MOL1         0.0754
      22    H13     21.394594   21.306726   23.765464 H          1 MOL1         0.0754
@<TRIPOS>BOND
    1     1     2    1
    2     1     3    2
    3     1     4    1
    4     4     5    1
    5     4     6    1
    6     4     7    1
    7     7     8    1
    8     7     9    1
    9     7    10    1
   10    10    11    1
   11    10    12    1
   12    10    13    1
   13    13    14    1
   14    13    15    1
   15    13    16    1
   16    16    17    1
   17    16    18    1
   18    16    19    1
   19    19    20    1
   20    19    21    1
   21    19    22    1
@<TRIPOS>SUBSTRUCTURE
       1 MOL1            1 RESIDUE      1      MOL     
@<SCITEGIC>MOL_PROPERTY
VConf Rank
SciTegic.value.IntegerValue
766

@<SCITEGIC>MOL_PROPERTY
Conf_Id
SciTegic.value.IntegerValue
28

@<SCITEGIC>MOL_PROPERTY
Delta U+W
SciTegic.value.DoubleValue
0.351

@<SCITEGIC>MOL_PROPERTY
U+W
SciTegic.value.DoubleValue
-52.808

@<SCITEGIC>MOL_PROPERTY
Grad RMS
SciTegic.value.DoubleValue
0.000000

@<SCITEGIC>MOL_PROPERTY
U
SciTegic.value.DoubleValue
7.689

@<SCITEGIC>MOL_PROPERTY
W
SciTegic.value.DoubleValue
-60.498

@<SCITEGIC>MOL_PROPERTY
W(PB)
SciTegic.value.DoubleValue
-62.768

@<SCITEGIC>MOL_PROPERTY
W(SA)
SciTegic.value.DoubleValue
2.270

@<SCITEGIC>MOL_PROPERTY
Valence
SciTegic.value.DoubleValue
8.197

@<SCITEGIC>MOL_PROPERTY
Coulomb
SciTegic.value.DoubleValue
-1.561

@<SCITEGIC>MOL_PROPERTY
VdW
SciTegic.value.DoubleValue
1.053

@<SCITEGIC>MOL_PROPERTY
VdW6
SciTegic.value.DoubleValue
-7.737

@<SCITEGIC>MOL_PROPERTY
VdW12
SciTegic.value.DoubleValue
8.791

@<SCITEGIC>MOL_PROPERTY
Bond
SciTegic.value.DoubleValue
0.181

@<SCITEGIC>MOL_PROPERTY
Angle
SciTegic.value.DoubleValue
2.780

@<SCITEGIC>MOL_PROPERTY
Pdih
SciTegic.value.DoubleValue
5.235

@<SCITEGIC>MOL_PROPERTY
Idih
SciTegic.value.DoubleValue
0.001

@<SCITEGIC>MOL_PROPERTY
Tether
SciTegic.value.DoubleValue
0.000

@<TRIPOS>MOLECULE
guest-s21_confgen4.mol2 : confsearch ligand conformer 767
          22          21           1
SMALL
USER_CHARGES
 
@<TRIPOS>ATOM
       1    C1      16.982858   16.577502   22.417451 C.2        1 MOL1         0.6145
       2    O1      17.200303   15.438936   22.781946 O.co2      1 MOL1        -0.6735
       3    O2      16.021137   17.227250   22.777141 O.co2      1 MOL1        -0.6735
       4    C2      17.982605   17.234127   21.472109 C.3        1 MOL1        -0.1985
       5    H1      17.433898   17.928571   20.824560 H          1 MOL1         0.0740
       6    H2      18.404491   16.453889   20.827239 H          1 MOL1         0.0740
       7    C3      19.114862   17.981756   22.218655 C.3        1 MOL1        -0.1882
       8    H3      18.666975   18.742447   22.871507 H          1 MOL1         0.0742
       9    H4      19.648658   17.275080   22.869021 H          1 MOL1         0.0742
      10    C4      20.110680   18.641517   21.236758 C.3        1 MOL1        -0.1880
      11    H5      19.586926   19.386436   20.622132 H          1 MOL1         0.0742
      12    H6      20.488274   17.876998   20.544013 H          1 MOL1         0.0742
      13    C5      21.318889   19.306208   21.938170 C.3        1 MOL1        -0.1880
      14    H7      21.845316   18.560674   22.549712 H          1 MOL1         0.0742
      15    H8      22.030566   19.634722   21.168415 H          1 MOL1         0.0742
      16    C6      20.932496   20.519442   22.813987 C.3        1 MOL1        -0.1856
      17    H9      20.282134   20.199271   23.638534 H          1 MOL1         0.0742
      18    H10     20.360066   21.241410   22.215411 H          1 MOL1         0.0742
      19    C7      22.178669   21.213749   23.399395 C.3        1 MOL1        -0.2871
      20    H11     22.835329   21.582355   22.600468 H          1 MOL1         0.0754
      21    H12     22.755944   20.521001   24.025685 H          1 MOL1         0.0754
      22    H13     21.887820   22.070549   24.020981 H          1 MOL1         0.0754
@<TRIPOS>BOND
    1     1     2    1
    2     1     3    2
    3     1     4    1
    4     4     5    1
    5     4     6    1
    6     4     7    1
    7     7     8    1
    8     7     9    1
    9     7    10    1
   10    10    11    1
   11    10    12    1
   12    10    13    1
   13    13    14    1
   14    13    15    1
   15    13    16    1
   16    16    17    1
   17    16    18    1
   18    16    19    1
   19    19    20    1
   20    19    21    1
   21    19    22    1
@<TRIPOS>SUBSTRUCTURE
       1 MOL1            1 RESIDUE      1      MOL     
@<SCITEGIC>MOL_PROPERTY
VConf Rank
SciTegic.value.IntegerValue
767

@<SCITEGIC>MOL_PROPERTY
Conf_Id
SciTegic.value.IntegerValue
50

@<SCITEGIC>MOL_PROPERTY
Delta U+W
SciTegic.value.DoubleValue
-0.486

@<SCITEGIC>MOL_PROPERTY
U+W
SciTegic.value.DoubleValue
-53.646

@<SCITEGIC>MOL_PROPERTY
Grad RMS
SciTegic.value.DoubleValue
0.000000

@<SCITEGIC>MOL_PROPERTY
U
SciTegic.value.DoubleValue
7.026

@<SCITEGIC>MOL_PROPERTY
W
SciTegic.value.DoubleValue
-60.672

@<SCITEGIC>MOL_PROPERTY
W(PB)
SciTegic.value.DoubleValue
-62.964

@<SCITEGIC>MOL_PROPERTY
W(SA)
SciTegic.value.DoubleValue
2.292

@<SCITEGIC>MOL_PROPERTY
Valence
SciTegic.value.DoubleValue
7.637

@<SCITEGIC>MOL_PROPERTY
Coulomb
SciTegic.value.DoubleValue
-1.488

@<SCITEGIC>MOL_PROPERTY
VdW
SciTegic.value.DoubleValue
0.877

@<SCITEGIC>MOL_PROPERTY
VdW6
SciTegic.value.DoubleValue
-7.165

@<SCITEGIC>MOL_PROPERTY
VdW12
SciTegic.value.DoubleValue
8.043

@<SCITEGIC>MOL_PROPERTY
Bond
SciTegic.value.DoubleValue
0.134

@<SCITEGIC>MOL_PROPERTY
Angle
SciTegic.value.DoubleValue
2.513

@<SCITEGIC>MOL_PROPERTY
Pdih
SciTegic.value.DoubleValue
4.990

@<SCITEGIC>MOL_PROPERTY
Idih
SciTegic.value.DoubleValue
0.001

@<SCITEGIC>MOL_PROPERTY
Tether
SciTegic.value.DoubleValue
0.000

@<TRIPOS>MOLECULE
guest-s21_confgen4.mol2 : confsearch ligand conformer 768
          22          21           1
SMALL
USER_CHARGES
 
@<TRIPOS>ATOM
       1    C1      20.424095   16.626692   19.471783 C.2        1 MOL1         0.6145
       2    O1      21.354366   16.891398   18.736259 O.co2      1 MOL1        -0.6735
       3    O2      19.353563   16.207275   19.078710 O.co2      1 MOL1        -0.6735
       4    C2      20.603095   16.852691   20.968851 C.3        1 MOL1        -0.1985
       5    H1      21.654394   16.665034   21.218191 H          1 MOL1         0.0740
       6    H2      20.004798   16.103075   21.500607 H          1 MOL1         0.0740
       7    C3      20.193138   18.277758   21.415411 C.3        1 MOL1        -0.1882
       8    H3      20.794507   19.016466   20.867716 H          1 MOL1         0.0742
       9    H4      19.144791   18.448523   21.137425 H          1 MOL1         0.0742
      10    C4      20.380362   18.477668   22.937269 C.3        1 MOL1        -0.1880
      11    H5      21.416053   18.227710   23.205276 H          1 MOL1         0.0742
      12    H6      19.738974   17.773989   23.485398 H          1 MOL1         0.0742
      13    C5      20.087167   19.921347   23.409907 C.3        1 MOL1        -0.1880
      14    H7      20.364700   20.003615   24.469688 H          1 MOL1         0.0742
      15    H8      20.731155   20.625007   22.864862 H          1 MOL1         0.0742
      16    C6      18.607291   20.335265   23.245804 C.3        1 MOL1        -0.1856
      17    H9      17.959682   19.602329   23.746416 H          1 MOL1         0.0742
      18    H10     18.329889   20.335656   22.183539 H          1 MOL1         0.0742
      19    C7      18.343829   21.736534   23.832958 C.3        1 MOL1        -0.2871
      20    H11     18.959459   22.494412   23.330955 H          1 MOL1         0.0754
      21    H12     18.574368   21.763092   24.906040 H          1 MOL1         0.0754
      22    H13     17.290193   22.017221   23.705927 H          1 MOL1         0.0754
@<TRIPOS>BOND
    1     1     2    1
    2     1     3    2
    3     1     4    1
    4     4     5    1
    5     4     6    1
    6     4     7    1
    7     7     8    1
    8     7     9    1
    9     7    10    1
   10    10    11    1
   11    10    12    1
   12    10    13    1
   13    13    14    1
   14    13    15    1
   15    13    16    1
   16    16    17    1
   17    16    18    1
   18    16    19    1
   19    19    20    1
   20    19    21    1
   21    19    22    1
@<TRIPOS>SUBSTRUCTURE
       1 MOL1            1 RESIDUE      1      MOL     
@<SCITEGIC>MOL_PROPERTY
VConf Rank
SciTegic.value.IntegerValue
768

@<SCITEGIC>MOL_PROPERTY
Conf_Id
SciTegic.value.IntegerValue
51

@<SCITEGIC>MOL_PROPERTY
Delta U+W
SciTegic.value.DoubleValue
-0.517

@<SCITEGIC>MOL_PROPERTY
U+W
SciTegic.value.DoubleValue
-53.677

@<SCITEGIC>MOL_PROPERTY
Grad RMS
SciTegic.value.DoubleValue
0.000000

@<SCITEGIC>MOL_PROPERTY
U
SciTegic.value.DoubleValue
7.026

@<SCITEGIC>MOL_PROPERTY
W
SciTegic.value.DoubleValue
-60.703

@<SCITEGIC>MOL_PROPERTY
W(PB)
SciTegic.value.DoubleValue
-63.007

@<SCITEGIC>MOL_PROPERTY
W(SA)
SciTegic.value.DoubleValue
2.304

@<SCITEGIC>MOL_PROPERTY
Valence
SciTegic.value.DoubleValue
7.638

@<SCITEGIC>MOL_PROPERTY
Coulomb
SciTegic.value.DoubleValue
-1.488

@<SCITEGIC>MOL_PROPERTY
VdW
SciTegic.value.DoubleValue
0.877

@<SCITEGIC>MOL_PROPERTY
VdW6
SciTegic.value.DoubleValue
-7.165

@<SCITEGIC>MOL_PROPERTY
VdW12
SciTegic.value.DoubleValue
8.042

@<SCITEGIC>MOL_PROPERTY
Bond
SciTegic.value.DoubleValue
0.134

@<SCITEGIC>MOL_PROPERTY
Angle
SciTegic.value.DoubleValue
2.513

@<SCITEGIC>MOL_PROPERTY
Pdih
SciTegic.value.DoubleValue
4.990

@<SCITEGIC>MOL_PROPERTY
Idih
SciTegic.value.DoubleValue
0.001

@<SCITEGIC>MOL_PROPERTY
Tether
SciTegic.value.DoubleValue
0.000

@<TRIPOS>MOLECULE
guest-s21_confgen4.mol2 : confsearch ligand conformer 769
          22          21           1
SMALL
USER_CHARGES
 
@<TRIPOS>ATOM
       1    C1      18.989403   22.066292   21.437547 C.2        1 MOL1         0.6145
       2    O1      17.806413   22.273294   21.623518 O.co2      1 MOL1        -0.6735
       3    O2      19.875666   22.691185   21.986035 O.co2      1 MOL1        -0.6735
       4    C2      19.380997   20.974018   20.446222 C.3        1 MOL1        -0.1985
       5    H1      20.419741   21.139208   20.135371 H          1 MOL1         0.0740
       6    H2      18.758167   21.103042   19.553206 H          1 MOL1         0.0740
       7    C3      19.208614   19.533539   20.994215 C.3        1 MOL1        -0.1882
       8    H3      18.170894   19.392623   21.327278 H          1 MOL1         0.0742
       9    H4      19.378347   18.818847   20.177545 H          1 MOL1         0.0742
      10    C4      20.178251   19.219589   22.155605 C.3        1 MOL1        -0.1880
      11    H5      20.002794   19.920029   22.983861 H          1 MOL1         0.0742
      12    H6      21.213325   19.374604   21.821528 H          1 MOL1         0.0742
      13    C5      20.011160   17.771582   22.664337 C.3        1 MOL1        -0.1880
      14    H7      18.975870   17.617370   22.998255 H          1 MOL1         0.0742
      15    H8      20.188951   17.069095   21.838528 H          1 MOL1         0.0742
      16    C6      20.978631   17.457559   23.824697 C.3        1 MOL1        -0.1856
      17    H9      20.802459   18.157279   24.653465 H          1 MOL1         0.0742
      18    H10     22.015474   17.609120   23.493868 H          1 MOL1         0.0742
      19    C7      20.808443   16.010992   24.330501 C.3        1 MOL1        -0.2871
      20    H11     19.787705   15.840689   24.697232 H          1 MOL1         0.0754
      21    H12     21.503503   15.805122   25.154876 H          1 MOL1         0.0754
      22    H13     21.009824   15.288348   23.528862 H          1 MOL1         0.0754
@<TRIPOS>BOND
    1     1     2    1
    2     1     3    2
    3     1     4    1
    4     4     5    1
    5     4     6    1
    6     4     7    1
    7     7     8    1
    8     7     9    1
    9     7    10    1
   10    10    11    1
   11    10    12    1
   12    10    13    1
   13    13    14    1
   14    13    15    1
   15    13    16    1
   16    16    17    1
   17    16    18    1
   18    16    19    1
   19    19    20    1
   20    19    21    1
   21    19    22    1
@<TRIPOS>SUBSTRUCTURE
       1 MOL1            1 RESIDUE      1      MOL     
@<SCITEGIC>MOL_PROPERTY
VConf Rank
SciTegic.value.IntegerValue
769

@<SCITEGIC>MOL_PROPERTY
Conf_Id
SciTegic.value.IntegerValue
43

@<SCITEGIC>MOL_PROPERTY
Delta U+W
SciTegic.value.DoubleValue
-0.129

@<SCITEGIC>MOL_PROPERTY
U+W
SciTegic.value.DoubleValue
-53.289

@<SCITEGIC>MOL_PROPERTY
Grad RMS
SciTegic.value.DoubleValue
0.000000

@<SCITEGIC>MOL_PROPERTY
U
SciTegic.value.DoubleValue
7.937

@<SCITEGIC>MOL_PROPERTY
W
SciTegic.value.DoubleValue
-61.225

@<SCITEGIC>MOL_PROPERTY
W(PB)
SciTegic.value.DoubleValue
-63.523

@<SCITEGIC>MOL_PROPERTY
W(SA)
SciTegic.value.DoubleValue
2.297

@<SCITEGIC>MOL_PROPERTY
Valence
SciTegic.value.DoubleValue
7.358

@<SCITEGIC>MOL_PROPERTY
Coulomb
SciTegic.value.DoubleValue
-0.022

@<SCITEGIC>MOL_PROPERTY
VdW
SciTegic.value.DoubleValue
0.601

@<SCITEGIC>MOL_PROPERTY
VdW6
SciTegic.value.DoubleValue
-7.363

@<SCITEGIC>MOL_PROPERTY
VdW12
SciTegic.value.DoubleValue
7.964

@<SCITEGIC>MOL_PROPERTY
Bond
SciTegic.value.DoubleValue
0.121

@<SCITEGIC>MOL_PROPERTY
Angle
SciTegic.value.DoubleValue
2.425

@<SCITEGIC>MOL_PROPERTY
Pdih
SciTegic.value.DoubleValue
4.811

@<SCITEGIC>MOL_PROPERTY
Idih
SciTegic.value.DoubleValue
0.000

@<SCITEGIC>MOL_PROPERTY
Tether
SciTegic.value.DoubleValue
0.000

@<TRIPOS>MOLECULE
guest-s21_confgen4.mol2 : confsearch ligand conformer 770
          22          21           1
SMALL
USER_CHARGES
 
@<TRIPOS>ATOM
       1    C1      21.828549   19.852446   19.721841 C.2        1 MOL1         0.6145
       2    O1      21.586177   19.226548   18.708723 O.co2      1 MOL1        -0.6735
       3    O2      22.883559   19.780163   20.320609 O.co2      1 MOL1        -0.6735
       4    C2      20.754526   20.794003   20.259498 C.3        1 MOL1        -0.1985
       5    H1      20.364879   21.366426   19.409470 H          1 MOL1         0.0740
       6    H2      21.227976   21.514698   20.937250 H          1 MOL1         0.0740
       7    C3      19.584819   20.072116   20.977597 C.3        1 MOL1        -0.1882
       8    H3      18.799956   20.805751   21.206313 H          1 MOL1         0.0742
       9    H4      19.139176   19.334299   20.295922 H          1 MOL1         0.0742
      10    C4      20.028330   19.376607   22.284178 C.3        1 MOL1        -0.1880
      11    H5      20.484896   20.115784   22.956621 H          1 MOL1         0.0742
      12    H6      20.801757   18.628616   22.061180 H          1 MOL1         0.0742
      13    C5      18.843108   18.691693   22.998042 C.3        1 MOL1        -0.1880
      14    H7      18.069519   19.438185   23.224688 H          1 MOL1         0.0742
      15    H8      18.387120   17.952650   22.324990 H          1 MOL1         0.0742
      16    C6      19.285395   17.996243   24.302565 C.3        1 MOL1        -0.1856
      17    H9      19.740579   18.732823   24.979114 H          1 MOL1         0.0742
      18    H10     20.058051   17.247414   24.079490 H          1 MOL1         0.0742
      19    C7      18.099362   17.312900   25.012302 C.3        1 MOL1        -0.2871
      20    H11     17.324517   18.044846   25.275484 H          1 MOL1         0.0754
      21    H12     18.431703   16.823788   25.937183 H          1 MOL1         0.0754
      22    H13     17.644433   16.548237   24.369082 H          1 MOL1         0.0754
@<TRIPOS>BOND
    1     1     2    1
    2     1     3    2
    3     1     4    1
    4     4     5    1
    5     4     6    1
    6     4     7    1
    7     7     8    1
    8     7     9    1
    9     7    10    1
   10    10    11    1
   11    10    12    1
   12    10    13    1
   13    13    14    1
   14    13    15    1
   15    13    16    1
   16    16    17    1
   17    16    18    1
   18    16    19    1
   19    19    20    1
   20    19    21    1
   21    19    22    1
@<TRIPOS>SUBSTRUCTURE
       1 MOL1            1 RESIDUE      1      MOL     
@<SCITEGIC>MOL_PROPERTY
VConf Rank
SciTegic.value.IntegerValue
770

@<SCITEGIC>MOL_PROPERTY
Conf_Id
SciTegic.value.IntegerValue
44

@<SCITEGIC>MOL_PROPERTY
Delta U+W
SciTegic.value.DoubleValue
-0.155

@<SCITEGIC>MOL_PROPERTY
U+W
SciTegic.value.DoubleValue
-53.314

@<SCITEGIC>MOL_PROPERTY
Grad RMS
SciTegic.value.DoubleValue
0.000000

@<SCITEGIC>MOL_PROPERTY
U
SciTegic.value.DoubleValue
7.937

@<SCITEGIC>MOL_PROPERTY
W
SciTegic.value.DoubleValue
-61.252

@<SCITEGIC>MOL_PROPERTY
W(PB)
SciTegic.value.DoubleValue
-63.556

@<SCITEGIC>MOL_PROPERTY
W(SA)
SciTegic.value.DoubleValue
2.304

@<SCITEGIC>MOL_PROPERTY
Valence
SciTegic.value.DoubleValue
7.358

@<SCITEGIC>MOL_PROPERTY
Coulomb
SciTegic.value.DoubleValue
-0.021

@<SCITEGIC>MOL_PROPERTY
VdW
SciTegic.value.DoubleValue
0.600

@<SCITEGIC>MOL_PROPERTY
VdW6
SciTegic.value.DoubleValue
-7.363

@<SCITEGIC>MOL_PROPERTY
VdW12
SciTegic.value.DoubleValue
7.964

@<SCITEGIC>MOL_PROPERTY
Bond
SciTegic.value.DoubleValue
0.121

@<SCITEGIC>MOL_PROPERTY
Angle
SciTegic.value.DoubleValue
2.425

@<SCITEGIC>MOL_PROPERTY
Pdih
SciTegic.value.DoubleValue
4.811

@<SCITEGIC>MOL_PROPERTY
Idih
SciTegic.value.DoubleValue
0.001

@<SCITEGIC>MOL_PROPERTY
Tether
SciTegic.value.DoubleValue
0.000

@<TRIPOS>MOLECULE
guest-s21_confgen4.mol2 : confsearch ligand conformer 771
          22          21           1
SMALL
USER_CHARGES
 
@<TRIPOS>ATOM
       1    C1      22.417596   20.211279   24.295589 C.2        1 MOL1         0.6145
       2    O1      23.311227   20.669997   23.611538 O.co2      1 MOL1        -0.6735
       3    O2      22.598604   19.400397   25.182478 O.co2      1 MOL1        -0.6735
       4    C2      20.993480   20.695773   24.037771 C.3        1 MOL1        -0.1985
       5    H1      21.030944   21.787792   23.947651 H          1 MOL1         0.0740
       6    H2      20.381518   20.470944   24.919726 H          1 MOL1         0.0740
       7    C3      20.340951   20.093877   22.765940 C.3        1 MOL1        -0.1882
       8    H3      19.392429   20.614364   22.582735 H          1 MOL1         0.0742
       9    H4      20.984989   20.292199   21.898020 H          1 MOL1         0.0742
      10    C4      20.085100   18.572815   22.892920 C.3        1 MOL1        -0.1880
      11    H5      19.407120   18.379990   23.735514 H          1 MOL1         0.0742
      12    H6      21.030085   18.067382   23.134854 H          1 MOL1         0.0742
      13    C5      19.508391   17.934935   21.606709 C.3        1 MOL1        -0.1880
      14    H7      20.186595   18.128199   20.764327 H          1 MOL1         0.0742
      15    H8      19.483135   16.844864   21.740908 H          1 MOL1         0.0742
      16    C6      18.086804   18.429200   21.255686 C.3        1 MOL1        -0.1856
      17    H9      18.102828   19.505101   21.037977 H          1 MOL1         0.0742
      18    H10     17.421113   18.285876   22.117955 H          1 MOL1         0.0742
      19    C7      17.513121   17.680105   20.036062 C.3        1 MOL1        -0.2871
      20    H11     18.145737   17.828726   19.151137 H          1 MOL1         0.0754
      21    H12     16.505415   18.044302   19.797414 H          1 MOL1         0.0754
      22    H13     17.445880   16.602035   20.232532 H          1 MOL1         0.0754
@<TRIPOS>BOND
    1     1     2    1
    2     1     3    2
    3     1     4    1
    4     4     5    1
    5     4     6    1
    6     4     7    1
    7     7     8    1
    8     7     9    1
    9     7    10    1
   10    10    11    1
   11    10    12    1
   12    10    13    1
   13    13    14    1
   14    13    15    1
   15    13    16    1
   16    16    17    1
   17    16    18    1
   18    16    19    1
   19    19    20    1
   20    19    21    1
   21    19    22    1
@<TRIPOS>SUBSTRUCTURE
       1 MOL1            1 RESIDUE      1      MOL     
@<SCITEGIC>MOL_PROPERTY
VConf Rank
SciTegic.value.IntegerValue
771

@<SCITEGIC>MOL_PROPERTY
Conf_Id
SciTegic.value.IntegerValue
53

@<SCITEGIC>MOL_PROPERTY
Delta U+W
SciTegic.value.DoubleValue
0.723

@<SCITEGIC>MOL_PROPERTY
U+W
SciTegic.value.DoubleValue
-52.436

@<SCITEGIC>MOL_PROPERTY
Grad RMS
SciTegic.value.DoubleValue
0.000000

@<SCITEGIC>MOL_PROPERTY
U
SciTegic.value.DoubleValue
8.587

@<SCITEGIC>MOL_PROPERTY
W
SciTegic.value.DoubleValue
-61.022

@<SCITEGIC>MOL_PROPERTY
W(PB)
SciTegic.value.DoubleValue
-63.285

@<SCITEGIC>MOL_PROPERTY
W(SA)
SciTegic.value.DoubleValue
2.263

@<SCITEGIC>MOL_PROPERTY
Valence
SciTegic.value.DoubleValue
7.933

@<SCITEGIC>MOL_PROPERTY
Coulomb
SciTegic.value.DoubleValue
-0.124

@<SCITEGIC>MOL_PROPERTY
VdW
SciTegic.value.DoubleValue
0.778

@<SCITEGIC>MOL_PROPERTY
VdW6
SciTegic.value.DoubleValue
-7.981

@<SCITEGIC>MOL_PROPERTY
VdW12
SciTegic.value.DoubleValue
8.759

@<SCITEGIC>MOL_PROPERTY
Bond
SciTegic.value.DoubleValue
0.160

@<SCITEGIC>MOL_PROPERTY
Angle
SciTegic.value.DoubleValue
2.698

@<SCITEGIC>MOL_PROPERTY
Pdih
SciTegic.value.DoubleValue
5.074

@<SCITEGIC>MOL_PROPERTY
Idih
SciTegic.value.DoubleValue
0.001

@<SCITEGIC>MOL_PROPERTY
Tether
SciTegic.value.DoubleValue
0.000

@<TRIPOS>MOLECULE
guest-s21_confgen4.mol2 : confsearch ligand conformer 772
          22          21           1
SMALL
USER_CHARGES
 
@<TRIPOS>ATOM
       1    C1      17.947762   19.159487   25.151780 C.2        1 MOL1         0.6145
       2    O1      16.782039   19.338788   24.859362 O.co2      1 MOL1        -0.6735
       3    O2      18.337789   18.994590   26.290758 O.co2      1 MOL1        -0.6735
       4    C2      18.974742   19.116850   24.025950 C.3        1 MOL1        -0.1985
       5    H1      19.927017   19.492738   24.418584 H          1 MOL1         0.0740
       6    H2      18.640982   19.811301   23.246803 H          1 MOL1         0.0740
       7    C3      19.160955   17.695764   23.436903 C.3        1 MOL1        -0.1882
       8    H3      19.360009   16.996582   24.260883 H          1 MOL1         0.0742
       9    H4      18.217937   17.368729   22.977533 H          1 MOL1         0.0742
      10    C4      20.310000   17.577837   22.404210 C.3        1 MOL1        -0.1880
      11    H5      20.373180   16.524357   22.099030 H          1 MOL1         0.0742
      12    H6      21.272083   17.807976   22.882108 H          1 MOL1         0.0742
      13    C5      20.123337   18.438992   21.129346 C.3        1 MOL1        -0.1880
      14    H7      20.514262   17.877451   20.269787 H          1 MOL1         0.0742
      15    H8      19.053809   18.594133   20.931853 H          1 MOL1         0.0742
      16    C6      20.861954   19.795900   21.192559 C.3        1 MOL1        -0.1856
      17    H9      21.937784   19.622390   21.332845 H          1 MOL1         0.0742
      18    H10     20.523304   20.380326   22.056346 H          1 MOL1         0.0742
      19    C7      20.642992   20.619073   19.907346 C.3        1 MOL1        -0.2871
      20    H11     21.010035   20.077076   19.025955 H          1 MOL1         0.0754
      21    H12     21.178766   21.575476   19.964547 H          1 MOL1         0.0754
      22    H13     19.577249   20.836050   19.757439 H          1 MOL1         0.0754
@<TRIPOS>BOND
    1     1     2    1
    2     1     3    2
    3     1     4    1
    4     4     5    1
    5     4     6    1
    6     4     7    1
    7     7     8    1
    8     7     9    1
    9     7    10    1
   10    10    11    1
   11    10    12    1
   12    10    13    1
   13    13    14    1
   14    13    15    1
   15    13    16    1
   16    16    17    1
   17    16    18    1
   18    16    19    1
   19    19    20    1
   20    19    21    1
   21    19    22    1
@<TRIPOS>SUBSTRUCTURE
       1 MOL1            1 RESIDUE      1      MOL     
@<SCITEGIC>MOL_PROPERTY
VConf Rank
SciTegic.value.IntegerValue
772

@<SCITEGIC>MOL_PROPERTY
Conf_Id
SciTegic.value.IntegerValue
5

@<SCITEGIC>MOL_PROPERTY
Delta U+W
SciTegic.value.DoubleValue
2.167

@<SCITEGIC>MOL_PROPERTY
U+W
SciTegic.value.DoubleValue
-50.993

@<SCITEGIC>MOL_PROPERTY
Grad RMS
SciTegic.value.DoubleValue
0.000000

@<SCITEGIC>MOL_PROPERTY
U
SciTegic.value.DoubleValue
10.045

@<SCITEGIC>MOL_PROPERTY
W
SciTegic.value.DoubleValue
-61.037

@<SCITEGIC>MOL_PROPERTY
W(PB)
SciTegic.value.DoubleValue
-63.303

@<SCITEGIC>MOL_PROPERTY
W(SA)
SciTegic.value.DoubleValue
2.266

@<SCITEGIC>MOL_PROPERTY
Valence
SciTegic.value.DoubleValue
10.100

@<SCITEGIC>MOL_PROPERTY
Coulomb
SciTegic.value.DoubleValue
-0.883

@<SCITEGIC>MOL_PROPERTY
VdW
SciTegic.value.DoubleValue
0.828

@<SCITEGIC>MOL_PROPERTY
VdW6
SciTegic.value.DoubleValue
-8.177

@<SCITEGIC>MOL_PROPERTY
VdW12
SciTegic.value.DoubleValue
9.005

@<SCITEGIC>MOL_PROPERTY
Bond
SciTegic.value.DoubleValue
0.182

@<SCITEGIC>MOL_PROPERTY
Angle
SciTegic.value.DoubleValue
2.988

@<SCITEGIC>MOL_PROPERTY
Pdih
SciTegic.value.DoubleValue
6.930

@<SCITEGIC>MOL_PROPERTY
Idih
SciTegic.value.DoubleValue
0.001

@<SCITEGIC>MOL_PROPERTY
Tether
SciTegic.value.DoubleValue
0.000

@<TRIPOS>MOLECULE
guest-s21_confgen4.mol2 : confsearch ligand conformer 773
          22          21           1
SMALL
USER_CHARGES
 
@<TRIPOS>ATOM
       1    C1      19.368112   20.288284   25.351778 C.2        1 MOL1         0.6145
       2    O1      19.830742   19.559389   26.206913 O.co2      1 MOL1        -0.6735
       3    O2      18.756336   21.309121   25.597148 O.co2      1 MOL1        -0.6735
       4    C2      19.545020   19.888476   23.891347 C.3        1 MOL1        -0.1985
       5    H1      20.511596   19.380076   23.801957 H          1 MOL1         0.0740
       6    H2      19.596004   20.804448   23.290783 H          1 MOL1         0.0740
       7    C3      18.405426   18.972868   23.377414 C.3        1 MOL1        -0.1882
       8    H3      18.421083   18.027697   23.937469 H          1 MOL1         0.0742
       9    H4      17.441659   19.449002   23.605166 H          1 MOL1         0.0742
      10    C4      18.460055   18.676883   21.857519 C.3        1 MOL1        -0.1880
      11    H5      18.345304   19.608791   21.287139 H          1 MOL1         0.0742
      12    H6      17.582414   18.064850   21.608306 H          1 MOL1         0.0742
      13    C5      19.727116   17.914886   21.393162 C.3        1 MOL1        -0.1880
      14    H7      20.118653   17.298158   22.213716 H          1 MOL1         0.0742
      15    H8      19.440041   17.215722   20.595821 H          1 MOL1         0.0742
      16    C6      20.833526   18.843747   20.841952 C.3        1 MOL1        -0.1856
      17    H9      21.131459   19.580470   21.597491 H          1 MOL1         0.0742
      18    H10     20.443743   19.411596   19.985907 H          1 MOL1         0.0742
      19    C7      22.074545   18.043352   20.398587 C.3        1 MOL1        -0.2871
      20    H11     22.506159   17.489609   21.242647 H          1 MOL1         0.0754
      21    H12     22.847405   18.715359   20.003458 H          1 MOL1         0.0754
      22    H13     21.817070   17.322792   19.611293 H          1 MOL1         0.0754
@<TRIPOS>BOND
    1     1     2    1
    2     1     3    2
    3     1     4    1
    4     4     5    1
    5     4     6    1
    6     4     7    1
    7     7     8    1
    8     7     9    1
    9     7    10    1
   10    10    11    1
   11    10    12    1
   12    10    13    1
   13    13    14    1
   14    13    15    1
   15    13    16    1
   16    16    17    1
   17    16    18    1
   18    16    19    1
   19    19    20    1
   20    19    21    1
   21    19    22    1
@<TRIPOS>SUBSTRUCTURE
       1 MOL1            1 RESIDUE      1      MOL     
@<SCITEGIC>MOL_PROPERTY
VConf Rank
SciTegic.value.IntegerValue
773

@<SCITEGIC>MOL_PROPERTY
Conf_Id
SciTegic.value.IntegerValue
6

@<SCITEGIC>MOL_PROPERTY
Delta U+W
SciTegic.value.DoubleValue
2.118

@<SCITEGIC>MOL_PROPERTY
U+W
SciTegic.value.DoubleValue
-51.042

@<SCITEGIC>MOL_PROPERTY
Grad RMS
SciTegic.value.DoubleValue
0.000000

@<SCITEGIC>MOL_PROPERTY
U
SciTegic.value.DoubleValue
10.045

@<SCITEGIC>MOL_PROPERTY
W
SciTegic.value.DoubleValue
-61.086

@<SCITEGIC>MOL_PROPERTY
W(PB)
SciTegic.value.DoubleValue
-63.356

@<SCITEGIC>MOL_PROPERTY
W(SA)
SciTegic.value.DoubleValue
2.270

@<SCITEGIC>MOL_PROPERTY
Valence
SciTegic.value.DoubleValue
10.100

@<SCITEGIC>MOL_PROPERTY
Coulomb
SciTegic.value.DoubleValue
-0.883

@<SCITEGIC>MOL_PROPERTY
VdW
SciTegic.value.DoubleValue
0.828

@<SCITEGIC>MOL_PROPERTY
VdW6
SciTegic.value.DoubleValue
-8.177

@<SCITEGIC>MOL_PROPERTY
VdW12
SciTegic.value.DoubleValue
9.004

@<SCITEGIC>MOL_PROPERTY
Bond
SciTegic.value.DoubleValue
0.182

@<SCITEGIC>MOL_PROPERTY
Angle
SciTegic.value.DoubleValue
2.988

@<SCITEGIC>MOL_PROPERTY
Pdih
SciTegic.value.DoubleValue
6.930

@<SCITEGIC>MOL_PROPERTY
Idih
SciTegic.value.DoubleValue
0.001

@<SCITEGIC>MOL_PROPERTY
Tether
SciTegic.value.DoubleValue
0.000

@<TRIPOS>MOLECULE
guest-s21_confgen4.mol2 : confsearch ligand conformer 774
          22          21           1
SMALL
USER_CHARGES
 
@<TRIPOS>ATOM
       1    C1      21.088116   18.745446   20.327706 C.2        1 MOL1         0.6145
       2    O1      21.859817   17.822005   20.498667 O.co2      1 MOL1        -0.6735
       3    O2      21.436523   19.908431   20.271729 O.co2      1 MOL1        -0.6735
       4    C2      19.612059   18.424393   20.100465 C.3        1 MOL1        -0.1985
       5    H1      19.563014   17.839408   19.174766 H          1 MOL1         0.0740
       6    H2      19.069116   19.358197   19.910552 H          1 MOL1         0.0740
       7    C3      18.923553   17.623741   21.241516 C.3        1 MOL1        -0.1882
       8    H3      18.025470   17.146632   20.826502 H          1 MOL1         0.0742
       9    H4      19.576621   16.803458   21.570468 H          1 MOL1         0.0742
      10    C4      18.485295   18.474691   22.459189 C.3        1 MOL1        -0.1880
      11    H5      17.880103   17.839217   23.120165 H          1 MOL1         0.0742
      12    H6      17.826334   19.287373   22.124306 H          1 MOL1         0.0742
      13    C5      19.660320   19.061077   23.274035 C.3        1 MOL1        -0.1880
      14    H7      20.372946   18.262274   23.521269 H          1 MOL1         0.0742
      15    H8      20.202030   19.799242   22.669283 H          1 MOL1         0.0742
      16    C6      19.172374   19.738766   24.571954 C.3        1 MOL1        -0.1856
      17    H9      18.634987   19.008620   25.192805 H          1 MOL1         0.0742
      18    H10     18.458115   20.536852   24.326381 H          1 MOL1         0.0742
      19    C7      20.345258   20.331103   25.378736 C.3        1 MOL1        -0.2871
      20    H11     21.059976   19.548239   25.664517 H          1 MOL1         0.0754
      21    H12     19.980943   20.809618   26.297062 H          1 MOL1         0.0754
      22    H13     20.882515   21.087748   24.791927 H          1 MOL1         0.0754
@<TRIPOS>BOND
    1     1     2    1
    2     1     3    2
    3     1     4    1
    4     4     5    1
    5     4     6    1
    6     4     7    1
    7     7     8    1
    8     7     9    1
    9     7    10    1
   10    10    11    1
   11    10    12    1
   12    10    13    1
   13    13    14    1
   14    13    15    1
   15    13    16    1
   16    16    17    1
   17    16    18    1
   18    16    19    1
   19    19    20    1
   20    19    21    1
   21    19    22    1
@<TRIPOS>SUBSTRUCTURE
       1 MOL1            1 RESIDUE      1      MOL     
@<SCITEGIC>MOL_PROPERTY
VConf Rank
SciTegic.value.IntegerValue
774

@<SCITEGIC>MOL_PROPERTY
Conf_Id
SciTegic.value.IntegerValue
8

@<SCITEGIC>MOL_PROPERTY
Delta U+W
SciTegic.value.DoubleValue
1.886

@<SCITEGIC>MOL_PROPERTY
U+W
SciTegic.value.DoubleValue
-51.274

@<SCITEGIC>MOL_PROPERTY
Grad RMS
SciTegic.value.DoubleValue
0.000000

@<SCITEGIC>MOL_PROPERTY
U
SciTegic.value.DoubleValue
11.237

@<SCITEGIC>MOL_PROPERTY
W
SciTegic.value.DoubleValue
-62.510

@<SCITEGIC>MOL_PROPERTY
W(PB)
SciTegic.value.DoubleValue
-64.777

@<SCITEGIC>MOL_PROPERTY
W(SA)
SciTegic.value.DoubleValue
2.267

@<SCITEGIC>MOL_PROPERTY
Valence
SciTegic.value.DoubleValue
9.029

@<SCITEGIC>MOL_PROPERTY
Coulomb
SciTegic.value.DoubleValue
1.667

@<SCITEGIC>MOL_PROPERTY
VdW
SciTegic.value.DoubleValue
0.540

@<SCITEGIC>MOL_PROPERTY
VdW6
SciTegic.value.DoubleValue
-8.825

@<SCITEGIC>MOL_PROPERTY
VdW12
SciTegic.value.DoubleValue
9.365

@<SCITEGIC>MOL_PROPERTY
Bond
SciTegic.value.DoubleValue
0.186

@<SCITEGIC>MOL_PROPERTY
Angle
SciTegic.value.DoubleValue
3.195

@<SCITEGIC>MOL_PROPERTY
Pdih
SciTegic.value.DoubleValue
5.642

@<SCITEGIC>MOL_PROPERTY
Idih
SciTegic.value.DoubleValue
0.007

@<SCITEGIC>MOL_PROPERTY
Tether
SciTegic.value.DoubleValue
0.000

@<TRIPOS>MOLECULE
guest-s21_confgen4.mol2 : confsearch ligand conformer 775
          22          21           1
SMALL
USER_CHARGES
 
@<TRIPOS>ATOM
       1    C1      21.202710   17.503928   24.723179 C.2        1 MOL1         0.6145
       2    O1      20.802647   16.436509   24.302074 O.co2      1 MOL1        -0.6735
       3    O2      21.174295   17.816436   25.897419 O.co2      1 MOL1        -0.6735
       4    C2      21.801328   18.495599   23.729494 C.3        1 MOL1        -0.1985
       5    H1      22.009706   17.970122   22.790793 H          1 MOL1         0.0740
       6    H2      22.772306   18.810538   24.129166 H          1 MOL1         0.0740
       7    C3      20.920918   19.749782   23.474443 C.3        1 MOL1        -0.1882
       8    H3      20.800642   20.292276   24.422367 H          1 MOL1         0.0742
       9    H4      21.451907   20.431051   22.796023 H          1 MOL1         0.0742
      10    C4      19.517173   19.445413   22.895140 C.3        1 MOL1        -0.1880
      11    H5      18.958752   20.388790   22.848247 H          1 MOL1         0.0742
      12    H6      18.964840   18.792489   23.584736 H          1 MOL1         0.0742
      13    C5      19.557711   18.799152   21.488674 C.3        1 MOL1        -0.1880
      14    H7      20.126121   19.439700   20.800851 H          1 MOL1         0.0742
      15    H8      20.095149   17.843649   21.544420 H          1 MOL1         0.0742
      16    C6      18.154853   18.522589   20.899182 C.3        1 MOL1        -0.1856
      17    H9      17.578620   17.894633   21.592727 H          1 MOL1         0.0742
      18    H10     18.271025   17.938334   19.975967 H          1 MOL1         0.0742
      19    C7      17.360126   19.806429   20.575185 C.3        1 MOL1        -0.2871
      20    H11     17.111985   20.366062   21.485452 H          1 MOL1         0.0754
      21    H12     16.416828   19.556597   20.072521 H          1 MOL1         0.0754
      22    H13     17.932861   20.465753   19.910079 H          1 MOL1         0.0754
@<TRIPOS>BOND
    1     1     2    1
    2     1     3    2
    3     1     4    1
    4     4     5    1
    5     4     6    1
    6     4     7    1
    7     7     8    1
    8     7     9    1
    9     7    10    1
   10    10    11    1
   11    10    12    1
   12    10    13    1
   13    13    14    1
   14    13    15    1
   15    13    16    1
   16    16    17    1
   17    16    18    1
   18    16    19    1
   19    19    20    1
   20    19    21    1
   21    19    22    1
@<TRIPOS>SUBSTRUCTURE
       1 MOL1            1 RESIDUE      1      MOL     
@<SCITEGIC>MOL_PROPERTY
VConf Rank
SciTegic.value.IntegerValue
775

@<SCITEGIC>MOL_PROPERTY
Conf_Id
SciTegic.value.IntegerValue
93

@<SCITEGIC>MOL_PROPERTY
Delta U+W
SciTegic.value.DoubleValue
1.836

@<SCITEGIC>MOL_PROPERTY
U+W
SciTegic.value.DoubleValue
-51.323

@<SCITEGIC>MOL_PROPERTY
Grad RMS
SciTegic.value.DoubleValue
0.000000

@<SCITEGIC>MOL_PROPERTY
U
SciTegic.value.DoubleValue
10.427

@<SCITEGIC>MOL_PROPERTY
W
SciTegic.value.DoubleValue
-61.751

@<SCITEGIC>MOL_PROPERTY
W(PB)
SciTegic.value.DoubleValue
-63.980

@<SCITEGIC>MOL_PROPERTY
W(SA)
SciTegic.value.DoubleValue
2.230

@<SCITEGIC>MOL_PROPERTY
Valence
SciTegic.value.DoubleValue
8.446

@<SCITEGIC>MOL_PROPERTY
Coulomb
SciTegic.value.DoubleValue
1.306

@<SCITEGIC>MOL_PROPERTY
VdW
SciTegic.value.DoubleValue
0.676

@<SCITEGIC>MOL_PROPERTY
VdW6
SciTegic.value.DoubleValue
-8.928

@<SCITEGIC>MOL_PROPERTY
VdW12
SciTegic.value.DoubleValue
9.604

@<SCITEGIC>MOL_PROPERTY
Bond
SciTegic.value.DoubleValue
0.209

@<SCITEGIC>MOL_PROPERTY
Angle
SciTegic.value.DoubleValue
3.066

@<SCITEGIC>MOL_PROPERTY
Pdih
SciTegic.value.DoubleValue
5.170

@<SCITEGIC>MOL_PROPERTY
Idih
SciTegic.value.DoubleValue
0.001

@<SCITEGIC>MOL_PROPERTY
Tether
SciTegic.value.DoubleValue
0.000

@<TRIPOS>MOLECULE
guest-s21_confgen4.mol2 : confsearch ligand conformer 776
          22          21           1
SMALL
USER_CHARGES
 
@<TRIPOS>ATOM
       1    C1      18.031073   16.634231   21.706100 C.2        1 MOL1         0.6145
       2    O1      18.363236   15.479573   21.889784 O.co2      1 MOL1        -0.6735
       3    O2      17.831756   17.109091   20.605397 O.co2      1 MOL1        -0.6735
       4    C2      17.824568   17.525954   22.927307 C.3        1 MOL1        -0.1985
       5    H1      17.173857   16.981407   23.621401 H          1 MOL1         0.0740
       6    H2      17.269365   18.419372   22.620286 H          1 MOL1         0.0740
       7    C3      19.138400   17.918301   23.657415 C.3        1 MOL1        -0.1882
       8    H3      18.892132   18.508323   24.550476 H          1 MOL1         0.0742
       9    H4      19.625392   17.002178   24.019194 H          1 MOL1         0.0742
      10    C4      20.148515   18.707263   22.787969 C.3        1 MOL1        -0.1880
      11    H5      20.428227   18.109516   21.909684 H          1 MOL1         0.0742
      12    H6      21.065834   18.843257   23.374508 H          1 MOL1         0.0742
      13    C5      19.619798   20.088301   22.329017 C.3        1 MOL1        -0.1880
      14    H7      18.716571   19.946743   21.721499 H          1 MOL1         0.0742
      15    H8      19.320473   20.681751   23.203497 H          1 MOL1         0.0742
      16    C6      20.640535   20.887298   21.485398 C.3        1 MOL1        -0.1856
      17    H9      20.141264   21.779340   21.082700 H          1 MOL1         0.0742
      18    H10     20.953406   20.289396   20.618216 H          1 MOL1         0.0742
      19    C7      21.883046   21.334973   22.285749 C.3        1 MOL1        -0.2871
      20    H11     22.484872   20.476102   22.607455 H          1 MOL1         0.0754
      21    H12     21.591619   21.905451   23.177222 H          1 MOL1         0.0754
      22    H13     22.525240   21.976990   21.669064 H          1 MOL1         0.0754
@<TRIPOS>BOND
    1     1     2    1
    2     1     3    2
    3     1     4    1
    4     4     5    1
    5     4     6    1
    6     4     7    1
    7     7     8    1
    8     7     9    1
    9     7    10    1
   10    10    11    1
   11    10    12    1
   12    10    13    1
   13    13    14    1
   14    13    15    1
   15    13    16    1
   16    16    17    1
   17    16    18    1
   18    16    19    1
   19    19    20    1
   20    19    21    1
   21    19    22    1
@<TRIPOS>SUBSTRUCTURE
       1 MOL1            1 RESIDUE      1      MOL     
@<SCITEGIC>MOL_PROPERTY
VConf Rank
SciTegic.value.IntegerValue
776

@<SCITEGIC>MOL_PROPERTY
Conf_Id
SciTegic.value.IntegerValue
70

@<SCITEGIC>MOL_PROPERTY
Delta U+W
SciTegic.value.DoubleValue
1.803

@<SCITEGIC>MOL_PROPERTY
U+W
SciTegic.value.DoubleValue
-51.356

@<SCITEGIC>MOL_PROPERTY
Grad RMS
SciTegic.value.DoubleValue
0.000000

@<SCITEGIC>MOL_PROPERTY
U
SciTegic.value.DoubleValue
10.428

@<SCITEGIC>MOL_PROPERTY
W
SciTegic.value.DoubleValue
-61.784

@<SCITEGIC>MOL_PROPERTY
W(PB)
SciTegic.value.DoubleValue
-64.014

@<SCITEGIC>MOL_PROPERTY
W(SA)
SciTegic.value.DoubleValue
2.230

@<SCITEGIC>MOL_PROPERTY
Valence
SciTegic.value.DoubleValue
8.445

@<SCITEGIC>MOL_PROPERTY
Coulomb
SciTegic.value.DoubleValue
1.306

@<SCITEGIC>MOL_PROPERTY
VdW
SciTegic.value.DoubleValue
0.676

@<SCITEGIC>MOL_PROPERTY
VdW6
SciTegic.value.DoubleValue
-8.929

@<SCITEGIC>MOL_PROPERTY
VdW12
SciTegic.value.DoubleValue
9.605

@<SCITEGIC>MOL_PROPERTY
Bond
SciTegic.value.DoubleValue
0.209

@<SCITEGIC>MOL_PROPERTY
Angle
SciTegic.value.DoubleValue
3.066

@<SCITEGIC>MOL_PROPERTY
Pdih
SciTegic.value.DoubleValue
5.170

@<SCITEGIC>MOL_PROPERTY
Idih
SciTegic.value.DoubleValue
0.001

@<SCITEGIC>MOL_PROPERTY
Tether
SciTegic.value.DoubleValue
0.000

@<TRIPOS>MOLECULE
guest-s21_confgen4.mol2 : confsearch ligand conformer 777
          22          21           1
SMALL
USER_CHARGES
 
@<TRIPOS>ATOM
       1    C1      20.032264   17.219165   25.163620 C.2        1 MOL1         0.6145
       2    O1      20.066880   16.072703   24.761949 O.co2      1 MOL1        -0.6735
       3    O2      19.228616   17.620920   25.981924 O.co2      1 MOL1        -0.6735
       4    C2      21.069035   18.201222   24.625319 C.3        1 MOL1        -0.1985
       5    H1      22.041214   17.694652   24.642460 H          1 MOL1         0.0740
       6    H2      21.140784   19.048958   25.317442 H          1 MOL1         0.0740
       7    C3      20.772759   18.705003   23.188862 C.3        1 MOL1        -0.1882
       8    H3      21.627619   19.296787   22.834925 H          1 MOL1         0.0742
       9    H4      20.686390   17.839094   22.519257 H          1 MOL1         0.0742
      10    C4      19.489782   19.567186   23.116936 C.3        1 MOL1        -0.1880
      11    H5      19.561461   20.376025   23.856857 H          1 MOL1         0.0742
      12    H6      18.617641   18.963120   23.402908 H          1 MOL1         0.0742
      13    C5      19.247064   20.195524   21.724165 C.3        1 MOL1        -0.1880
      14    H7      18.393396   20.883180   21.796760 H          1 MOL1         0.0742
      15    H8      20.114550   20.806430   21.439339 H          1 MOL1         0.0742
      16    C6      18.958730   19.153045   20.620413 C.3        1 MOL1        -0.1856
      17    H9      18.124645   18.507823   20.929057 H          1 MOL1         0.0742
      18    H10     19.831316   18.502290   20.477337 H          1 MOL1         0.0742
      19    C7      18.613127   19.830572   19.279052 C.3        1 MOL1        -0.2871
      20    H11     17.719561   20.461099   19.375634 H          1 MOL1         0.0754
      21    H12     18.414245   19.077588   18.505410 H          1 MOL1         0.0754
      22    H13     19.442372   20.461411   18.932979 H          1 MOL1         0.0754
@<TRIPOS>BOND
    1     1     2    1
    2     1     3    2
    3     1     4    1
    4     4     5    1
    5     4     6    1
    6     4     7    1
    7     7     8    1
    8     7     9    1
    9     7    10    1
   10    10    11    1
   11    10    12    1
   12    10    13    1
   13    13    14    1
   14    13    15    1
   15    13    16    1
   16    16    17    1
   17    16    18    1
   18    16    19    1
   19    19    20    1
   20    19    21    1
   21    19    22    1
@<TRIPOS>SUBSTRUCTURE
       1 MOL1            1 RESIDUE      1      MOL     
@<SCITEGIC>MOL_PROPERTY
VConf Rank
SciTegic.value.IntegerValue
777

@<SCITEGIC>MOL_PROPERTY
Conf_Id
SciTegic.value.IntegerValue
85

@<SCITEGIC>MOL_PROPERTY
Delta U+W
SciTegic.value.DoubleValue
0.707

@<SCITEGIC>MOL_PROPERTY
U+W
SciTegic.value.DoubleValue
-52.452

@<SCITEGIC>MOL_PROPERTY
Grad RMS
SciTegic.value.DoubleValue
0.000000

@<SCITEGIC>MOL_PROPERTY
U
SciTegic.value.DoubleValue
8.925

@<SCITEGIC>MOL_PROPERTY
W
SciTegic.value.DoubleValue
-61.378

@<SCITEGIC>MOL_PROPERTY
W(PB)
SciTegic.value.DoubleValue
-63.661

@<SCITEGIC>MOL_PROPERTY
W(SA)
SciTegic.value.DoubleValue
2.283

@<SCITEGIC>MOL_PROPERTY
Valence
SciTegic.value.DoubleValue
7.881

@<SCITEGIC>MOL_PROPERTY
Coulomb
SciTegic.value.DoubleValue
0.349

@<SCITEGIC>MOL_PROPERTY
VdW
SciTegic.value.DoubleValue
0.695

@<SCITEGIC>MOL_PROPERTY
VdW6
SciTegic.value.DoubleValue
-8.049

@<SCITEGIC>MOL_PROPERTY
VdW12
SciTegic.value.DoubleValue
8.743

@<SCITEGIC>MOL_PROPERTY
Bond
SciTegic.value.DoubleValue
0.156

@<SCITEGIC>MOL_PROPERTY
Angle
SciTegic.value.DoubleValue
2.660

@<SCITEGIC>MOL_PROPERTY
Pdih
SciTegic.value.DoubleValue
5.064

@<SCITEGIC>MOL_PROPERTY
Idih
SciTegic.value.DoubleValue
0.001

@<SCITEGIC>MOL_PROPERTY
Tether
SciTegic.value.DoubleValue
0.000

@<TRIPOS>MOLECULE
guest-s21_confgen4.mol2 : confsearch ligand conformer 778
          22          21           1
SMALL
USER_CHARGES
 
@<TRIPOS>ATOM
       1    C1      21.438783   21.703518   23.197930 C.2        1 MOL1         0.6145
       2    O1      21.801794   21.714676   24.357688 O.co2      1 MOL1        -0.6735
       3    O2      22.151621   22.024645   22.267493 O.co2      1 MOL1        -0.6735
       4    C2      20.002726   21.286032   22.893234 C.3        1 MOL1        -0.1985
       5    H1      19.591879   22.019126   22.189126 H          1 MOL1         0.0740
       6    H2      19.411659   21.364202   23.813769 H          1 MOL1         0.0740
       7    C3      19.871511   19.862309   22.291999 C.3        1 MOL1        -0.1882
       8    H3      18.833829   19.719650   21.965241 H          1 MOL1         0.0742
       9    H4      20.505030   19.783801   21.397702 H          1 MOL1         0.0742
      10    C4      20.246533   18.752951   23.301833 C.3        1 MOL1        -0.1880
      11    H5      19.553060   18.784989   24.153167 H          1 MOL1         0.0742
      12    H6      21.244479   18.960420   23.711593 H          1 MOL1         0.0742
      13    C5      20.260220   17.324553   22.701819 C.3        1 MOL1        -0.1880
      14    H7      21.018268   17.256304   21.909586 H          1 MOL1         0.0742
      15    H8      20.592897   16.638110   23.492381 H          1 MOL1         0.0742
      16    C6      18.889798   16.827336   22.177776 C.3        1 MOL1        -0.1856
      17    H9      18.072073   17.318202   22.723293 H          1 MOL1         0.0742
      18    H10     18.799702   15.753853   22.394145 H          1 MOL1         0.0742
      19    C7      18.712397   17.023406   20.655569 C.3        1 MOL1        -0.2871
      20    H11     18.776218   18.079334   20.369479 H          1 MOL1         0.0754
      21    H12     17.733572   16.646915   20.331573 H          1 MOL1         0.0754
      22    H13     19.483671   16.475015   20.099250 H          1 MOL1         0.0754
@<TRIPOS>BOND
    1     1     2    1
    2     1     3    2
    3     1     4    1
    4     4     5    1
    5     4     6    1
    6     4     7    1
    7     7     8    1
    8     7     9    1
    9     7    10    1
   10    10    11    1
   11    10    12    1
   12    10    13    1
   13    13    14    1
   14    13    15    1
   15    13    16    1
   16    16    17    1
   17    16    18    1
   18    16    19    1
   19    19    20    1
   20    19    21    1
   21    19    22    1
@<TRIPOS>SUBSTRUCTURE
       1 MOL1            1 RESIDUE      1      MOL     
@<SCITEGIC>MOL_PROPERTY
VConf Rank
SciTegic.value.IntegerValue
778

@<SCITEGIC>MOL_PROPERTY
Conf_Id
SciTegic.value.IntegerValue
82

@<SCITEGIC>MOL_PROPERTY
Delta U+W
SciTegic.value.DoubleValue
3.438

@<SCITEGIC>MOL_PROPERTY
U+W
SciTegic.value.DoubleValue
-49.721

@<SCITEGIC>MOL_PROPERTY
Grad RMS
SciTegic.value.DoubleValue
0.000000

@<SCITEGIC>MOL_PROPERTY
U
SciTegic.value.DoubleValue
11.773

@<SCITEGIC>MOL_PROPERTY
W
SciTegic.value.DoubleValue
-61.495

@<SCITEGIC>MOL_PROPERTY
W(PB)
SciTegic.value.DoubleValue
-63.749

@<SCITEGIC>MOL_PROPERTY
W(SA)
SciTegic.value.DoubleValue
2.254

@<SCITEGIC>MOL_PROPERTY
Valence
SciTegic.value.DoubleValue
10.419

@<SCITEGIC>MOL_PROPERTY
Coulomb
SciTegic.value.DoubleValue
0.565

@<SCITEGIC>MOL_PROPERTY
VdW
SciTegic.value.DoubleValue
0.789

@<SCITEGIC>MOL_PROPERTY
VdW6
SciTegic.value.DoubleValue
-8.847

@<SCITEGIC>MOL_PROPERTY
VdW12
SciTegic.value.DoubleValue
9.636

@<SCITEGIC>MOL_PROPERTY
Bond
SciTegic.value.DoubleValue
0.200

@<SCITEGIC>MOL_PROPERTY
Angle
SciTegic.value.DoubleValue
3.187

@<SCITEGIC>MOL_PROPERTY
Pdih
SciTegic.value.DoubleValue
7.032

@<SCITEGIC>MOL_PROPERTY
Idih
SciTegic.value.DoubleValue
0.001

@<SCITEGIC>MOL_PROPERTY
Tether
SciTegic.value.DoubleValue
0.000

@<TRIPOS>MOLECULE
guest-s21_confgen4.mol2 : confsearch ligand conformer 779
          22          21           1
SMALL
USER_CHARGES
 
@<TRIPOS>ATOM
       1    C1      19.318735   18.567486   25.644728 C.2        1 MOL1         0.6145
       2    O1      18.291421   19.162713   25.904156 O.co2      1 MOL1        -0.6735
       3    O2      19.568954   17.449940   26.051447 O.co2      1 MOL1        -0.6735
       4    C2      20.360010   19.272782   24.780030 C.3        1 MOL1        -0.1985
       5    H1      21.327982   18.777006   24.921779 H          1 MOL1         0.0740
       6    H2      20.466990   20.293702   25.165089 H          1 MOL1         0.0740
       7    C3      20.000599   19.324310   23.272098 C.3        1 MOL1        -0.1882
       8    H3      19.008600   19.780329   23.148552 H          1 MOL1         0.0742
       9    H4      20.721527   19.979621   22.767384 H          1 MOL1         0.0742
      10    C4      20.025077   17.928822   22.606445 C.3        1 MOL1        -0.1880
      11    H5      19.387044   17.243693   23.181209 H          1 MOL1         0.0742
      12    H6      21.042175   17.517219   22.659308 H          1 MOL1         0.0742
      13    C5      19.540319   17.917227   21.134914 C.3        1 MOL1        -0.1880
      14    H7      19.548857   16.873164   20.793264 H          1 MOL1         0.0742
      15    H8      18.491426   18.239571   21.081571 H          1 MOL1         0.0742
      16    C6      20.408223   18.750275   20.158865 C.3        1 MOL1        -0.1856
      17    H9      20.454561   18.225226   19.194772 H          1 MOL1         0.0742
      18    H10     21.442785   18.809421   20.524098 H          1 MOL1         0.0742
      19    C7      19.847928   20.167288   19.903585 C.3        1 MOL1        -0.2871
      20    H11     18.840998   20.116089   19.469352 H          1 MOL1         0.0754
      21    H12     20.489537   20.712631   19.199485 H          1 MOL1         0.0754
      22    H13     19.788219   20.755366   20.826354 H          1 MOL1         0.0754
@<TRIPOS>BOND
    1     1     2    1
    2     1     3    2
    3     1     4    1
    4     4     5    1
    5     4     6    1
    6     4     7    1
    7     7     8    1
    8     7     9    1
    9     7    10    1
   10    10    11    1
   11    10    12    1
   12    10    13    1
   13    13    14    1
   14    13    15    1
   15    13    16    1
   16    16    17    1
   17    16    18    1
   18    16    19    1
   19    19    20    1
   20    19    21    1
   21    19    22    1
@<TRIPOS>SUBSTRUCTURE
       1 MOL1            1 RESIDUE      1      MOL     
@<SCITEGIC>MOL_PROPERTY
VConf Rank
SciTegic.value.IntegerValue
779

@<SCITEGIC>MOL_PROPERTY
Conf_Id
SciTegic.value.IntegerValue
94

@<SCITEGIC>MOL_PROPERTY
Delta U+W
SciTegic.value.DoubleValue
3.471

@<SCITEGIC>MOL_PROPERTY
U+W
SciTegic.value.DoubleValue
-49.688

@<SCITEGIC>MOL_PROPERTY
Grad RMS
SciTegic.value.DoubleValue
0.000000

@<SCITEGIC>MOL_PROPERTY
U
SciTegic.value.DoubleValue
11.773

@<SCITEGIC>MOL_PROPERTY
W
SciTegic.value.DoubleValue
-61.461

@<SCITEGIC>MOL_PROPERTY
W(PB)
SciTegic.value.DoubleValue
-63.710

@<SCITEGIC>MOL_PROPERTY
W(SA)
SciTegic.value.DoubleValue
2.248

@<SCITEGIC>MOL_PROPERTY
Valence
SciTegic.value.DoubleValue
10.419

@<SCITEGIC>MOL_PROPERTY
Coulomb
SciTegic.value.DoubleValue
0.566

@<SCITEGIC>MOL_PROPERTY
VdW
SciTegic.value.DoubleValue
0.789

@<SCITEGIC>MOL_PROPERTY
VdW6
SciTegic.value.DoubleValue
-8.847

@<SCITEGIC>MOL_PROPERTY
VdW12
SciTegic.value.DoubleValue
9.636

@<SCITEGIC>MOL_PROPERTY
Bond
SciTegic.value.DoubleValue
0.200

@<SCITEGIC>MOL_PROPERTY
Angle
SciTegic.value.DoubleValue
3.187

@<SCITEGIC>MOL_PROPERTY
Pdih
SciTegic.value.DoubleValue
7.032

@<SCITEGIC>MOL_PROPERTY
Idih
SciTegic.value.DoubleValue
0.001

@<SCITEGIC>MOL_PROPERTY
Tether
SciTegic.value.DoubleValue
0.000

@<TRIPOS>MOLECULE
guest-s21_confgen4.mol2 : confsearch ligand conformer 780
          22          21           1
SMALL
USER_CHARGES
 
@<TRIPOS>ATOM
       1    C1      21.249699   16.793730   20.428582 C.2        1 MOL1         0.6145
       2    O1      21.334151   15.584942   20.520220 O.co2      1 MOL1        -0.6735
       3    O2      22.079267   17.485631   19.872106 O.co2      1 MOL1        -0.6735
       4    C2      20.046404   17.481346   21.063561 C.3        1 MOL1        -0.1985
       5    H1      19.189687   16.800341   20.996469 H          1 MOL1         0.0740
       6    H2      19.809121   18.364163   20.459107 H          1 MOL1         0.0740
       7    C3      20.295349   17.883970   22.540170 C.3        1 MOL1        -0.1882
       8    H3      20.610524   16.993100   23.100629 H          1 MOL1         0.0742
       9    H4      21.135963   18.588580   22.592318 H          1 MOL1         0.0742
      10    C4      19.049412   18.489036   23.234396 C.3        1 MOL1        -0.1880
      11    H5      19.293674   18.696296   24.284564 H          1 MOL1         0.0742
      12    H6      18.254306   17.731554   23.258370 H          1 MOL1         0.0742
      13    C5      18.486575   19.776317   22.576149 C.3        1 MOL1        -0.1880
      14    H7      18.090919   19.532885   21.581439 H          1 MOL1         0.0742
      15    H8      17.623531   20.120208   23.162186 H          1 MOL1         0.0742
      16    C6      19.495406   20.943555   22.442941 C.3        1 MOL1        -0.1856
      17    H9      18.994800   21.783815   21.942678 H          1 MOL1         0.0742
      18    H10     20.327022   20.651772   21.787747 H          1 MOL1         0.0742
      19    C7      20.047113   21.430676   23.800194 C.3        1 MOL1        -0.2871
      20    H11     19.230680   21.712465   24.477679 H          1 MOL1         0.0754
      21    H12     20.690163   22.309180   23.660681 H          1 MOL1         0.0754
      22    H13     20.647396   20.652805   24.288593 H          1 MOL1         0.0754
@<TRIPOS>BOND
    1     1     2    1
    2     1     3    2
    3     1     4    1
    4     4     5    1
    5     4     6    1
    6     4     7    1
    7     7     8    1
    8     7     9    1
    9     7    10    1
   10    10    11    1
   11    10    12    1
   12    10    13    1
   13    13    14    1
   14    13    15    1
   15    13    16    1
   16    16    17    1
   17    16    18    1
   18    16    19    1
   19    19    20    1
   20    19    21    1
   21    19    22    1
@<TRIPOS>SUBSTRUCTURE
       1 MOL1            1 RESIDUE      1      MOL     
@<SCITEGIC>MOL_PROPERTY
VConf Rank
SciTegic.value.IntegerValue
780

@<SCITEGIC>MOL_PROPERTY
Conf_Id
SciTegic.value.IntegerValue
56

@<SCITEGIC>MOL_PROPERTY
Delta U+W
SciTegic.value.DoubleValue
0.853

@<SCITEGIC>MOL_PROPERTY
U+W
SciTegic.value.DoubleValue
-52.307

@<SCITEGIC>MOL_PROPERTY
Grad RMS
SciTegic.value.DoubleValue
0.000000

@<SCITEGIC>MOL_PROPERTY
U
SciTegic.value.DoubleValue
8.874

@<SCITEGIC>MOL_PROPERTY
W
SciTegic.value.DoubleValue
-61.181

@<SCITEGIC>MOL_PROPERTY
W(PB)
SciTegic.value.DoubleValue
-63.413

@<SCITEGIC>MOL_PROPERTY
W(SA)
SciTegic.value.DoubleValue
2.232

@<SCITEGIC>MOL_PROPERTY
Valence
SciTegic.value.DoubleValue
8.479

@<SCITEGIC>MOL_PROPERTY
Coulomb
SciTegic.value.DoubleValue
-0.357

@<SCITEGIC>MOL_PROPERTY
VdW
SciTegic.value.DoubleValue
0.753

@<SCITEGIC>MOL_PROPERTY
VdW6
SciTegic.value.DoubleValue
-9.081

@<SCITEGIC>MOL_PROPERTY
VdW12
SciTegic.value.DoubleValue
9.833

@<SCITEGIC>MOL_PROPERTY
Bond
SciTegic.value.DoubleValue
0.221

@<SCITEGIC>MOL_PROPERTY
Angle
SciTegic.value.DoubleValue
3.208

@<SCITEGIC>MOL_PROPERTY
Pdih
SciTegic.value.DoubleValue
5.050

@<SCITEGIC>MOL_PROPERTY
Idih
SciTegic.value.DoubleValue
0.000

@<SCITEGIC>MOL_PROPERTY
Tether
SciTegic.value.DoubleValue
0.000

@<TRIPOS>MOLECULE
guest-s21_confgen4.mol2 : confsearch ligand conformer 781
          22          21           1
SMALL
USER_CHARGES
 
@<TRIPOS>ATOM
       1    C1      21.965360   15.515741   22.414035 C.2        1 MOL1         0.6145
       2    O1      22.276021   15.545150   21.238865 O.co2      1 MOL1        -0.6735
       3    O2      22.320191   14.635273   23.172186 O.co2      1 MOL1        -0.6735
       4    C2      21.087053   16.625107   22.994906 C.3        1 MOL1        -0.1985
       5    H1      21.639136   17.077211   23.827237 H          1 MOL1         0.0740
       6    H2      20.197089   16.147856   23.421712 H          1 MOL1         0.0740
       7    C3      20.659784   17.727000   21.989082 C.3        1 MOL1        -0.1882
       8    H3      21.556015   18.196758   21.560613 H          1 MOL1         0.0742
       9    H4      20.112502   17.266600   21.154814 H          1 MOL1         0.0742
      10    C4      19.777881   18.804001   22.657535 C.3        1 MOL1        -0.1880
      11    H5      20.327093   19.262808   23.491197 H          1 MOL1         0.0742
      12    H6      18.882663   18.332002   23.085240 H          1 MOL1         0.0742
      13    C5      19.353924   19.899010   21.655276 C.3        1 MOL1        -0.1880
      14    H7      20.248841   20.371279   21.227243 H          1 MOL1         0.0742
      15    H8      18.804627   19.440663   20.821419 H          1 MOL1         0.0742
      16    C6      18.472654   20.975638   22.322611 C.3        1 MOL1        -0.1856
      17    H9      19.019648   21.437860   23.156052 H          1 MOL1         0.0742
      18    H10     17.575376   20.507171   22.750286 H          1 MOL1         0.0742
      19    C7      18.051376   22.067193   21.318434 C.3        1 MOL1        -0.2871
      20    H11     18.929750   22.574326   20.898098 H          1 MOL1         0.0754
      21    H12     17.425819   22.823950   21.809443 H          1 MOL1         0.0754
      22    H13     17.474605   21.636680   20.489338 H          1 MOL1         0.0754
@<TRIPOS>BOND
    1     1     2    1
    2     1     3    2
    3     1     4    1
    4     4     5    1
    5     4     6    1
    6     4     7    1
    7     7     8    1
    8     7     9    1
    9     7    10    1
   10    10    11    1
   11    10    12    1
   12    10    13    1
   13    13    14    1
   14    13    15    1
   15    13    16    1
   16    16    17    1
   17    16    18    1
   18    16    19    1
   19    19    20    1
   20    19    21    1
   21    19    22    1
@<TRIPOS>SUBSTRUCTURE
       1 MOL1            1 RESIDUE      1      MOL     
@<SCITEGIC>MOL_PROPERTY
VConf Rank
SciTegic.value.IntegerValue
781

@<SCITEGIC>MOL_PROPERTY
Conf_Id
SciTegic.value.IntegerValue
0

@<SCITEGIC>MOL_PROPERTY
Delta U+W
SciTegic.value.DoubleValue
0.000

@<SCITEGIC>MOL_PROPERTY
U+W
SciTegic.value.DoubleValue
-53.159

@<SCITEGIC>MOL_PROPERTY
Grad RMS
SciTegic.value.DoubleValue
0.000000

@<SCITEGIC>MOL_PROPERTY
U
SciTegic.value.DoubleValue
6.763

@<SCITEGIC>MOL_PROPERTY
W
SciTegic.value.DoubleValue
-59.922

@<SCITEGIC>MOL_PROPERTY
W(PB)
SciTegic.value.DoubleValue
-62.256

@<SCITEGIC>MOL_PROPERTY
W(SA)
SciTegic.value.DoubleValue
2.334

@<SCITEGIC>MOL_PROPERTY
Valence
SciTegic.value.DoubleValue
7.600

@<SCITEGIC>MOL_PROPERTY
Coulomb
SciTegic.value.DoubleValue
-2.139

@<SCITEGIC>MOL_PROPERTY
VdW
SciTegic.value.DoubleValue
1.302

@<SCITEGIC>MOL_PROPERTY
VdW6
SciTegic.value.DoubleValue
-6.786

@<SCITEGIC>MOL_PROPERTY
VdW12
SciTegic.value.DoubleValue
8.088

@<SCITEGIC>MOL_PROPERTY
Bond
SciTegic.value.DoubleValue
0.134

@<SCITEGIC>MOL_PROPERTY
Angle
SciTegic.value.DoubleValue
2.720

@<SCITEGIC>MOL_PROPERTY
Pdih
SciTegic.value.DoubleValue
4.746

@<SCITEGIC>MOL_PROPERTY
Idih
SciTegic.value.DoubleValue
0.000

@<SCITEGIC>MOL_PROPERTY
Tether
SciTegic.value.DoubleValue
0.000

@<TRIPOS>MOLECULE
guest-s21_confgen4.mol2 : confsearch ligand conformer 782
          22          21           1
SMALL
USER_CHARGES
 
@<TRIPOS>ATOM
       1    C1      23.717848   18.505426   22.941377 C.2        1 MOL1         0.6145
       2    O1      24.338141   17.947501   22.057981 O.co2      1 MOL1        -0.6735
       3    O2      23.985002   18.399038   24.121945 O.co2      1 MOL1        -0.6735
       4    C2      22.524488   19.368901   22.548291 C.3        1 MOL1        -0.1985
       5    H1      22.735941   19.817447   21.570151 H          1 MOL1         0.0740
       6    H2      22.445122   20.189832   23.271088 H          1 MOL1         0.0740
       7    C3      21.197209   18.572908   22.495625 C.3        1 MOL1        -0.1882
       8    H3      21.297513   17.747208   21.777480 H          1 MOL1         0.0742
       9    H4      21.006702   18.119583   23.478364 H          1 MOL1         0.0742
      10    C4      20.005084   19.468862   22.095645 C.3        1 MOL1        -0.1880
      11    H5      20.199265   19.921397   21.113464 H          1 MOL1         0.0742
      12    H6      19.908403   20.293900   22.814768 H          1 MOL1         0.0742
      13    C5      18.683430   18.672710   22.044010 C.3        1 MOL1        -0.1880
      14    H7      18.779709   17.847560   21.324994 H          1 MOL1         0.0742
      15    H8      18.488892   18.219998   23.026015 H          1 MOL1         0.0742
      16    C6      17.491496   19.567477   21.644317 C.3        1 MOL1        -0.1856
      17    H9      17.681541   20.020607   20.661447 H          1 MOL1         0.0742
      18    H10     17.390728   20.393061   22.362462 H          1 MOL1         0.0742
      19    C7      16.173606   18.768750   21.593889 C.3        1 MOL1        -0.2871
      20    H11     15.942406   18.330139   22.573468 H          1 MOL1         0.0754
      21    H12     16.235489   17.954759   20.859725 H          1 MOL1         0.0754
      22    H13     15.337262   19.419916   21.308225 H          1 MOL1         0.0754
@<TRIPOS>BOND
    1     1     2    1
    2     1     3    2
    3     1     4    1
    4     4     5    1
    5     4     6    1
    6     4     7    1
    7     7     8    1
    8     7     9    1
    9     7    10    1
   10    10    11    1
   11    10    12    1
   12    10    13    1
   13    13    14    1
   14    13    15    1
   15    13    16    1
   16    16    17    1
   17    16    18    1
   18    16    19    1
   19    19    20    1
   20    19    21    1
   21    19    22    1
@<TRIPOS>SUBSTRUCTURE
       1 MOL1            1 RESIDUE      1      MOL     
@<SCITEGIC>MOL_PROPERTY
VConf Rank
SciTegic.value.IntegerValue
782

@<SCITEGIC>MOL_PROPERTY
Conf_Id
SciTegic.value.IntegerValue
10

@<SCITEGIC>MOL_PROPERTY
Delta U+W
SciTegic.value.DoubleValue
-1.291

@<SCITEGIC>MOL_PROPERTY
U+W
SciTegic.value.DoubleValue
-54.451

@<SCITEGIC>MOL_PROPERTY
Grad RMS
SciTegic.value.DoubleValue
0.000000

@<SCITEGIC>MOL_PROPERTY
U
SciTegic.value.DoubleValue
5.779

@<SCITEGIC>MOL_PROPERTY
W
SciTegic.value.DoubleValue
-60.230

@<SCITEGIC>MOL_PROPERTY
W(PB)
SciTegic.value.DoubleValue
-62.557

@<SCITEGIC>MOL_PROPERTY
W(SA)
SciTegic.value.DoubleValue
2.328

@<SCITEGIC>MOL_PROPERTY
Valence
SciTegic.value.DoubleValue
7.101

@<SCITEGIC>MOL_PROPERTY
Coulomb
SciTegic.value.DoubleValue
-2.079

@<SCITEGIC>MOL_PROPERTY
VdW
SciTegic.value.DoubleValue
0.757

@<SCITEGIC>MOL_PROPERTY
VdW6
SciTegic.value.DoubleValue
-6.496

@<SCITEGIC>MOL_PROPERTY
VdW12
SciTegic.value.DoubleValue
7.253

@<SCITEGIC>MOL_PROPERTY
Bond
SciTegic.value.DoubleValue
0.100

@<SCITEGIC>MOL_PROPERTY
Angle
SciTegic.value.DoubleValue
2.262

@<SCITEGIC>MOL_PROPERTY
Pdih
SciTegic.value.DoubleValue
4.738

@<SCITEGIC>MOL_PROPERTY
Idih
SciTegic.value.DoubleValue
0.001

@<SCITEGIC>MOL_PROPERTY
Tether
SciTegic.value.DoubleValue
0.000

@<TRIPOS>MOLECULE
guest-s21_confgen4.mol2 : confsearch ligand conformer 783
          22          21           1
SMALL
USER_CHARGES
 
@<TRIPOS>ATOM
       1    C1      17.751304   21.511161   24.208305 C.2        1 MOL1         0.6145
       2    O1      17.098029   20.993866   25.092665 O.co2      1 MOL1        -0.6735
       3    O2      18.126478   22.666541   24.236563 O.co2      1 MOL1        -0.6735
       4    C2      18.139628   20.657309   23.006494 C.3        1 MOL1        -0.1985
       5    H1      18.184033   21.308947   22.125562 H          1 MOL1         0.0740
       6    H2      17.337556   19.930122   22.831744 H          1 MOL1         0.0740
       7    C3      19.491174   19.926303   23.199114 C.3        1 MOL1        -0.1882
       8    H3      20.280693   20.667352   23.386247 H          1 MOL1         0.0742
       9    H4      19.434585   19.287894   24.091741 H          1 MOL1         0.0742
      10    C4      19.861508   19.069089   21.969325 C.3        1 MOL1        -0.1880
      11    H5      19.919405   19.710136   21.079065 H          1 MOL1         0.0742
      12    H6      19.063458   18.337569   21.787219 H          1 MOL1         0.0742
      13    C5      21.209527   18.338607   22.168067 C.3        1 MOL1        -0.1880
      14    H7      21.982854   19.077491   22.418968 H          1 MOL1         0.0742
      15    H8      21.138761   17.658204   23.027706 H          1 MOL1         0.0742
      16    C6      21.670947   17.549530   20.920768 C.3        1 MOL1        -0.1856
      17    H9      22.682893   17.162325   21.103181 H          1 MOL1         0.0742
      18    H10     21.748981   18.228183   20.060158 H          1 MOL1         0.0742
      19    C7      20.742810   16.367184   20.567457 C.3        1 MOL1        -0.2871
      20    H11     21.159688   15.788082   19.733327 H          1 MOL1         0.0754
      21    H12     19.747480   16.715581   20.264734 H          1 MOL1         0.0754
      22    H13     20.625629   15.690169   21.423642 H          1 MOL1         0.0754
@<TRIPOS>BOND
    1     1     2    1
    2     1     3    2
    3     1     4    1
    4     4     5    1
    5     4     6    1
    6     4     7    1
    7     7     8    1
    8     7     9    1
    9     7    10    1
   10    10    11    1
   11    10    12    1
   12    10    13    1
   13    13    14    1
   14    13    15    1
   15    13    16    1
   16    16    17    1
   17    16    18    1
   18    16    19    1
   19    19    20    1
   20    19    21    1
   21    19    22    1
@<TRIPOS>SUBSTRUCTURE
       1 MOL1            1 RESIDUE      1      MOL     
@<SCITEGIC>MOL_PROPERTY
VConf Rank
SciTegic.value.IntegerValue
783

@<SCITEGIC>MOL_PROPERTY
Conf_Id
SciTegic.value.IntegerValue
37

@<SCITEGIC>MOL_PROPERTY
Delta U+W
SciTegic.value.DoubleValue
-0.345

@<SCITEGIC>MOL_PROPERTY
U+W
SciTegic.value.DoubleValue
-53.504

@<SCITEGIC>MOL_PROPERTY
Grad RMS
SciTegic.value.DoubleValue
0.000000

@<SCITEGIC>MOL_PROPERTY
U
SciTegic.value.DoubleValue
6.751

@<SCITEGIC>MOL_PROPERTY
W
SciTegic.value.DoubleValue
-60.255

@<SCITEGIC>MOL_PROPERTY
W(PB)
SciTegic.value.DoubleValue
-62.592

@<SCITEGIC>MOL_PROPERTY
W(SA)
SciTegic.value.DoubleValue
2.336

@<SCITEGIC>MOL_PROPERTY
Valence
SciTegic.value.DoubleValue
7.602

@<SCITEGIC>MOL_PROPERTY
Coulomb
SciTegic.value.DoubleValue
-1.744

@<SCITEGIC>MOL_PROPERTY
VdW
SciTegic.value.DoubleValue
0.894

@<SCITEGIC>MOL_PROPERTY
VdW6
SciTegic.value.DoubleValue
-7.110

@<SCITEGIC>MOL_PROPERTY
VdW12
SciTegic.value.DoubleValue
8.004

@<SCITEGIC>MOL_PROPERTY
Bond
SciTegic.value.DoubleValue
0.131

@<SCITEGIC>MOL_PROPERTY
Angle
SciTegic.value.DoubleValue
2.489

@<SCITEGIC>MOL_PROPERTY
Pdih
SciTegic.value.DoubleValue
4.982

@<SCITEGIC>MOL_PROPERTY
Idih
SciTegic.value.DoubleValue
0.001

@<SCITEGIC>MOL_PROPERTY
Tether
SciTegic.value.DoubleValue
0.000

@<TRIPOS>MOLECULE
guest-s21_confgen4.mol2 : confsearch ligand conformer 784
          22          21           1
SMALL
USER_CHARGES
 
@<TRIPOS>ATOM
       1    C1      17.786559   16.777371   19.731217 C.2        1 MOL1         0.6145
       2    O1      17.450997   17.377631   18.729450 O.co2      1 MOL1        -0.6735
       3    O2      17.181829   15.822928   20.178205 O.co2      1 MOL1        -0.6735
       4    C2      19.022406   17.261992   20.480908 C.3        1 MOL1        -0.1985
       5    H1      19.726452   17.673093   19.747443 H          1 MOL1         0.0740
       6    H2      19.505100   16.391382   20.941006 H          1 MOL1         0.0740
       7    C3      18.694173   18.323309   21.559808 C.3        1 MOL1        -0.1882
       8    H3      18.200475   19.182717   21.085225 H          1 MOL1         0.0742
       9    H4      17.978113   17.900560   22.278176 H          1 MOL1         0.0742
      10    C4      19.961279   18.797332   22.304183 C.3        1 MOL1        -0.1880
      11    H5      20.672184   19.210810   21.576985 H          1 MOL1         0.0742
      12    H6      20.451394   17.936617   22.779380 H          1 MOL1         0.0742
      13    C5      19.628786   19.859434   23.377333 C.3        1 MOL1        -0.1880
      14    H7      19.184770   20.743015   22.898720 H          1 MOL1         0.0742
      15    H8      18.864288   19.455568   24.055102 H          1 MOL1         0.0742
      16    C6      20.853564   20.287794   24.218606 C.3        1 MOL1        -0.1856
      17    H9      21.296601   19.407305   24.704165 H          1 MOL1         0.0742
      18    H10     20.511982   20.948814   25.027068 H          1 MOL1         0.0742
      19    C7      21.932402   21.025339   23.396204 C.3        1 MOL1        -0.2871
      20    H11     21.505572   21.893240   22.876877 H          1 MOL1         0.0754
      21    H12     22.386804   20.364696   22.647356 H          1 MOL1         0.0754
      22    H13     22.735497   21.385401   24.052187 H          1 MOL1         0.0754
@<TRIPOS>BOND
    1     1     2    1
    2     1     3    2
    3     1     4    1
    4     4     5    1
    5     4     6    1
    6     4     7    1
    7     7     8    1
    8     7     9    1
    9     7    10    1
   10    10    11    1
   11    10    12    1
   12    10    13    1
   13    13    14    1
   14    13    15    1
   15    13    16    1
   16    16    17    1
   17    16    18    1
   18    16    19    1
   19    19    20    1
   20    19    21    1
   21    19    22    1
@<TRIPOS>SUBSTRUCTURE
       1 MOL1            1 RESIDUE      1      MOL     
@<SCITEGIC>MOL_PROPERTY
VConf Rank
SciTegic.value.IntegerValue
784

@<SCITEGIC>MOL_PROPERTY
Conf_Id
SciTegic.value.IntegerValue
38

@<SCITEGIC>MOL_PROPERTY
Delta U+W
SciTegic.value.DoubleValue
-0.439

@<SCITEGIC>MOL_PROPERTY
U+W
SciTegic.value.DoubleValue
-53.598

@<SCITEGIC>MOL_PROPERTY
Grad RMS
SciTegic.value.DoubleValue
0.000000

@<SCITEGIC>MOL_PROPERTY
U
SciTegic.value.DoubleValue
6.751

@<SCITEGIC>MOL_PROPERTY
W
SciTegic.value.DoubleValue
-60.350

@<SCITEGIC>MOL_PROPERTY
W(PB)
SciTegic.value.DoubleValue
-62.659

@<SCITEGIC>MOL_PROPERTY
W(SA)
SciTegic.value.DoubleValue
2.309

@<SCITEGIC>MOL_PROPERTY
Valence
SciTegic.value.DoubleValue
7.602

@<SCITEGIC>MOL_PROPERTY
Coulomb
SciTegic.value.DoubleValue
-1.744

@<SCITEGIC>MOL_PROPERTY
VdW
SciTegic.value.DoubleValue
0.893

@<SCITEGIC>MOL_PROPERTY
VdW6
SciTegic.value.DoubleValue
-7.110

@<SCITEGIC>MOL_PROPERTY
VdW12
SciTegic.value.DoubleValue
8.004

@<SCITEGIC>MOL_PROPERTY
Bond
SciTegic.value.DoubleValue
0.131

@<SCITEGIC>MOL_PROPERTY
Angle
SciTegic.value.DoubleValue
2.489

@<SCITEGIC>MOL_PROPERTY
Pdih
SciTegic.value.DoubleValue
4.981

@<SCITEGIC>MOL_PROPERTY
Idih
SciTegic.value.DoubleValue
0.001

@<SCITEGIC>MOL_PROPERTY
Tether
SciTegic.value.DoubleValue
0.000

@<TRIPOS>MOLECULE
guest-s21_confgen4.mol2 : confsearch ligand conformer 785
          22          21           1
SMALL
USER_CHARGES
 
@<TRIPOS>ATOM
       1    C1      19.857848   16.488251   19.429785 C.2        1 MOL1         0.6145
       2    O1      19.813608   15.287059   19.607948 O.co2      1 MOL1        -0.6735
       3    O2      20.258011   17.001832   18.403804 O.co2      1 MOL1        -0.6735
       4    C2      19.407708   17.401474   20.564548 C.3        1 MOL1        -0.1985
       5    H1      18.613747   16.887818   21.119705 H          1 MOL1         0.0740
       6    H2      18.963912   18.296556   20.114731 H          1 MOL1         0.0740
       7    C3      20.566914   17.785401   21.520818 C.3        1 MOL1        -0.1882
       8    H3      21.049286   16.863873   21.875149 H          1 MOL1         0.0742
       9    H4      21.333603   18.341970   20.964299 H          1 MOL1         0.0742
      10    C4      20.111558   18.608461   22.749617 C.3        1 MOL1        -0.1880
      11    H5      20.967803   18.705652   23.429122 H          1 MOL1         0.0742
      12    H6      19.339249   18.053004   23.298866 H          1 MOL1         0.0742
      13    C5      19.582349   20.017290   22.384706 C.3        1 MOL1        -0.1880
      14    H7      20.354129   20.571971   21.833900 H          1 MOL1         0.0742
      15    H8      18.724160   19.921532   21.707637 H          1 MOL1         0.0742
      16    C6      19.131478   20.841157   23.613557 C.3        1 MOL1        -0.1856
      17    H9      18.367542   20.284535   24.173796 H          1 MOL1         0.0742
      18    H10     18.647181   21.762053   23.260498 H          1 MOL1         0.0742
      19    C7      20.293002   21.223636   24.556544 C.3        1 MOL1        -0.2871
      20    H11     20.732891   20.338231   25.031917 H          1 MOL1         0.0754
      21    H12     19.935615   21.885614   25.355905 H          1 MOL1         0.0754
      22    H13     21.085363   21.751466   24.010023 H          1 MOL1         0.0754
@<TRIPOS>BOND
    1     1     2    1
    2     1     3    2
    3     1     4    1
    4     4     5    1
    5     4     6    1
    6     4     7    1
    7     7     8    1
    8     7     9    1
    9     7    10    1
   10    10    11    1
   11    10    12    1
   12    10    13    1
   13    13    14    1
   14    13    15    1
   15    13    16    1
   16    16    17    1
   17    16    18    1
   18    16    19    1
   19    19    20    1
   20    19    21    1
   21    19    22    1
@<TRIPOS>SUBSTRUCTURE
       1 MOL1            1 RESIDUE      1      MOL     
@<SCITEGIC>MOL_PROPERTY
VConf Rank
SciTegic.value.IntegerValue
785

@<SCITEGIC>MOL_PROPERTY
Conf_Id
SciTegic.value.IntegerValue
60

@<SCITEGIC>MOL_PROPERTY
Delta U+W
SciTegic.value.DoubleValue
0.386

@<SCITEGIC>MOL_PROPERTY
U+W
SciTegic.value.DoubleValue
-52.773

@<SCITEGIC>MOL_PROPERTY
Grad RMS
SciTegic.value.DoubleValue
0.000000

@<SCITEGIC>MOL_PROPERTY
U
SciTegic.value.DoubleValue
7.689

@<SCITEGIC>MOL_PROPERTY
W
SciTegic.value.DoubleValue
-60.463

@<SCITEGIC>MOL_PROPERTY
W(PB)
SciTegic.value.DoubleValue
-62.772

@<SCITEGIC>MOL_PROPERTY
W(SA)
SciTegic.value.DoubleValue
2.309

@<SCITEGIC>MOL_PROPERTY
Valence
SciTegic.value.DoubleValue
8.197

@<SCITEGIC>MOL_PROPERTY
Coulomb
SciTegic.value.DoubleValue
-1.561

@<SCITEGIC>MOL_PROPERTY
VdW
SciTegic.value.DoubleValue
1.053

@<SCITEGIC>MOL_PROPERTY
VdW6
SciTegic.value.DoubleValue
-7.737

@<SCITEGIC>MOL_PROPERTY
VdW12
SciTegic.value.DoubleValue
8.790

@<SCITEGIC>MOL_PROPERTY
Bond
SciTegic.value.DoubleValue
0.181

@<SCITEGIC>MOL_PROPERTY
Angle
SciTegic.value.DoubleValue
2.780

@<SCITEGIC>MOL_PROPERTY
Pdih
SciTegic.value.DoubleValue
5.235

@<SCITEGIC>MOL_PROPERTY
Idih
SciTegic.value.DoubleValue
0.001

@<SCITEGIC>MOL_PROPERTY
Tether
SciTegic.value.DoubleValue
0.000

@<TRIPOS>MOLECULE
guest-s21_confgen4.mol2 : confsearch ligand conformer 786
          22          21           1
SMALL
USER_CHARGES
 
@<TRIPOS>ATOM
       1    C1      18.853647   19.501555   25.822326 C.2        1 MOL1         0.6145
       2    O1      19.476013   18.752915   26.549466 O.co2      1 MOL1        -0.6735
       3    O2      17.831688   20.067948   26.156032 O.co2      1 MOL1        -0.6735
       4    C2      19.370972   19.724966   24.405728 C.3        1 MOL1        -0.1985
       5    H1      20.464915   19.673819   24.439434 H          1 MOL1         0.0740
       6    H2      19.101496   20.743599   24.102108 H          1 MOL1         0.0740
       7    C3      18.804810   18.696976   23.391672 C.3        1 MOL1        -0.1882
       8    H3      19.121933   17.684786   23.678377 H          1 MOL1         0.0742
       9    H4      17.707933   18.707819   23.456412 H          1 MOL1         0.0742
      10    C4      19.215894   18.978748   21.926635 C.3        1 MOL1        -0.1880
      11    H5      18.904728   19.994157   21.645946 H          1 MOL1         0.0742
      12    H6      18.656628   18.291513   21.279134 H          1 MOL1         0.0742
      13    C5      20.733273   18.807130   21.669488 C.3        1 MOL1        -0.1880
      14    H7      21.293639   19.496024   22.314077 H          1 MOL1         0.0742
      15    H8      21.044667   17.792280   21.952003 H          1 MOL1         0.0742
      16    C6      21.142955   19.084439   20.204096 C.3        1 MOL1        -0.1856
      17    H9      22.239707   19.076043   20.138448 H          1 MOL1         0.0742
      18    H10     20.822933   20.094719   19.913897 H          1 MOL1         0.0742
      19    C7      20.579817   18.052355   19.202931 C.3        1 MOL1        -0.2871
      20    H11     20.858626   17.030935   19.492915 H          1 MOL1         0.0754
      21    H12     20.977308   18.238057   18.196733 H          1 MOL1         0.0754
      22    H13     19.485873   18.107097   19.141979 H          1 MOL1         0.0754
@<TRIPOS>BOND
    1     1     2    1
    2     1     3    2
    3     1     4    1
    4     4     5    1
    5     4     6    1
    6     4     7    1
    7     7     8    1
    8     7     9    1
    9     7    10    1
   10    10    11    1
   11    10    12    1
   12    10    13    1
   13    13    14    1
   14    13    15    1
   15    13    16    1
   16    16    17    1
   17    16    18    1
   18    16    19    1
   19    19    20    1
   20    19    21    1
   21    19    22    1
@<TRIPOS>SUBSTRUCTURE
       1 MOL1            1 RESIDUE      1      MOL     
@<SCITEGIC>MOL_PROPERTY
VConf Rank
SciTegic.value.IntegerValue
786

@<SCITEGIC>MOL_PROPERTY
Conf_Id
SciTegic.value.IntegerValue
28

@<SCITEGIC>MOL_PROPERTY
Delta U+W
SciTegic.value.DoubleValue
0.351

@<SCITEGIC>MOL_PROPERTY
U+W
SciTegic.value.DoubleValue
-52.808

@<SCITEGIC>MOL_PROPERTY
Grad RMS
SciTegic.value.DoubleValue
0.000000

@<SCITEGIC>MOL_PROPERTY
U
SciTegic.value.DoubleValue
7.689

@<SCITEGIC>MOL_PROPERTY
W
SciTegic.value.DoubleValue
-60.498

@<SCITEGIC>MOL_PROPERTY
W(PB)
SciTegic.value.DoubleValue
-62.768

@<SCITEGIC>MOL_PROPERTY
W(SA)
SciTegic.value.DoubleValue
2.270

@<SCITEGIC>MOL_PROPERTY
Valence
SciTegic.value.DoubleValue
8.197

@<SCITEGIC>MOL_PROPERTY
Coulomb
SciTegic.value.DoubleValue
-1.561

@<SCITEGIC>MOL_PROPERTY
VdW
SciTegic.value.DoubleValue
1.053

@<SCITEGIC>MOL_PROPERTY
VdW6
SciTegic.value.DoubleValue
-7.737

@<SCITEGIC>MOL_PROPERTY
VdW12
SciTegic.value.DoubleValue
8.791

@<SCITEGIC>MOL_PROPERTY
Bond
SciTegic.value.DoubleValue
0.181

@<SCITEGIC>MOL_PROPERTY
Angle
SciTegic.value.DoubleValue
2.780

@<SCITEGIC>MOL_PROPERTY
Pdih
SciTegic.value.DoubleValue
5.235

@<SCITEGIC>MOL_PROPERTY
Idih
SciTegic.value.DoubleValue
0.001

@<SCITEGIC>MOL_PROPERTY
Tether
SciTegic.value.DoubleValue
0.000

@<TRIPOS>MOLECULE
guest-s21_confgen4.mol2 : confsearch ligand conformer 787
          22          21           1
SMALL
USER_CHARGES
 
@<TRIPOS>ATOM
       1    C1      18.310313   18.781253   25.638704 C.2        1 MOL1         0.6145
       2    O1      17.125916   18.512416   25.676135 O.co2      1 MOL1        -0.6735
       3    O2      19.127426   18.331793   26.417657 O.co2      1 MOL1        -0.6735
       4    C2      18.801428   19.718789   24.541363 C.3        1 MOL1        -0.1985
       5    H1      19.652286   20.287858   24.934874 H          1 MOL1         0.0740
       6    H2      18.002302   20.438004   24.325158 H          1 MOL1         0.0740
       7    C3      19.211650   18.969939   23.249378 C.3        1 MOL1        -0.1882
       8    H3      19.996974   18.243066   23.495125 H          1 MOL1         0.0742
       9    H4      18.352029   18.398308   22.873088 H          1 MOL1         0.0742
      10    C4      19.709705   19.943484   22.156121 C.3        1 MOL1        -0.1880
      11    H5      20.601259   20.477116   22.512993 H          1 MOL1         0.0742
      12    H6      18.939733   20.707254   21.980732 H          1 MOL1         0.0742
      13    C5      20.026070   19.249145   20.810250 C.3        1 MOL1        -0.1880
      14    H7      19.133573   18.718750   20.450998 H          1 MOL1         0.0742
      15    H8      20.248776   20.023301   20.063247 H          1 MOL1         0.0742
      16    C6      21.218618   18.269259   20.887346 C.3        1 MOL1        -0.1856
      17    H9      20.985731   17.442629   21.571309 H          1 MOL1         0.0742
      18    H10     22.097489   18.786437   21.296392 H          1 MOL1         0.0742
      19    C7      21.564782   17.689979   19.500870 C.3        1 MOL1        -0.2871
      20    H11     21.841173   18.487766   18.799087 H          1 MOL1         0.0754
      21    H12     20.710911   17.143234   19.079729 H          1 MOL1         0.0754
      22    H13     22.410754   16.994108   19.572732 H          1 MOL1         0.0754
@<TRIPOS>BOND
    1     1     2    1
    2     1     3    2
    3     1     4    1
    4     4     5    1
    5     4     6    1
    6     4     7    1
    7     7     8    1
    8     7     9    1
    9     7    10    1
   10    10    11    1
   11    10    12    1
   12    10    13    1
   13    13    14    1
   14    13    15    1
   15    13    16    1
   16    16    17    1
   17    16    18    1
   18    16    19    1
   19    19    20    1
   20    19    21    1
   21    19    22    1
@<TRIPOS>SUBSTRUCTURE
       1 MOL1            1 RESIDUE      1      MOL     
@<SCITEGIC>MOL_PROPERTY
VConf Rank
SciTegic.value.IntegerValue
787

@<SCITEGIC>MOL_PROPERTY
Conf_Id
SciTegic.value.IntegerValue
50

@<SCITEGIC>MOL_PROPERTY
Delta U+W
SciTegic.value.DoubleValue
-0.486

@<SCITEGIC>MOL_PROPERTY
U+W
SciTegic.value.DoubleValue
-53.646

@<SCITEGIC>MOL_PROPERTY
Grad RMS
SciTegic.value.DoubleValue
0.000000

@<SCITEGIC>MOL_PROPERTY
U
SciTegic.value.DoubleValue
7.026

@<SCITEGIC>MOL_PROPERTY
W
SciTegic.value.DoubleValue
-60.672

@<SCITEGIC>MOL_PROPERTY
W(PB)
SciTegic.value.DoubleValue
-62.964

@<SCITEGIC>MOL_PROPERTY
W(SA)
SciTegic.value.DoubleValue
2.292

@<SCITEGIC>MOL_PROPERTY
Valence
SciTegic.value.DoubleValue
7.637

@<SCITEGIC>MOL_PROPERTY
Coulomb
SciTegic.value.DoubleValue
-1.488

@<SCITEGIC>MOL_PROPERTY
VdW
SciTegic.value.DoubleValue
0.877

@<SCITEGIC>MOL_PROPERTY
VdW6
SciTegic.value.DoubleValue
-7.165

@<SCITEGIC>MOL_PROPERTY
VdW12
SciTegic.value.DoubleValue
8.043

@<SCITEGIC>MOL_PROPERTY
Bond
SciTegic.value.DoubleValue
0.134

@<SCITEGIC>MOL_PROPERTY
Angle
SciTegic.value.DoubleValue
2.513

@<SCITEGIC>MOL_PROPERTY
Pdih
SciTegic.value.DoubleValue
4.990

@<SCITEGIC>MOL_PROPERTY
Idih
SciTegic.value.DoubleValue
0.001

@<SCITEGIC>MOL_PROPERTY
Tether
SciTegic.value.DoubleValue
0.000

@<TRIPOS>MOLECULE
guest-s21_confgen4.mol2 : confsearch ligand conformer 788
          22          21           1
SMALL
USER_CHARGES
 
@<TRIPOS>ATOM
       1    C1      22.003598   16.189906   23.177706 C.2        1 MOL1         0.6145
       2    O1      22.697353   16.339058   24.164078 O.co2      1 MOL1        -0.6735
       3    O2      22.401407   15.689131   22.144543 O.co2      1 MOL1        -0.6735
       4    C2      20.559860   16.676659   23.232668 C.3        1 MOL1        -0.1985
       5    H1      20.198242   16.554352   24.260718 H          1 MOL1         0.0740
       6    H2      19.954534   16.020567   22.595664 H          1 MOL1         0.0740
       7    C3      20.404181   18.150125   22.782157 C.3        1 MOL1        -0.1882
       8    H3      21.022990   18.792754   23.423568 H          1 MOL1         0.0742
       9    H4      20.790712   18.250860   21.759457 H          1 MOL1         0.0742
      10    C4      18.930888   18.615663   22.843383 C.3        1 MOL1        -0.1880
      11    H5      18.541282   18.434993   23.854585 H          1 MOL1         0.0742
      12    H6      18.320992   18.006875   22.161920 H          1 MOL1         0.0742
      13    C5      18.743545   20.114107   22.507036 C.3        1 MOL1        -0.1880
      14    H7      17.695838   20.384888   22.696547 H          1 MOL1         0.0742
      15    H8      19.350204   20.723461   23.190838 H          1 MOL1         0.0742
      16    C6      19.095443   20.466300   21.044020 C.3        1 MOL1        -0.1856
      17    H9      18.527544   19.820310   20.360358 H          1 MOL1         0.0742
      18    H10     20.160064   20.276466   20.854532 H          1 MOL1         0.0742
      19    C7      18.785919   21.943493   20.728089 C.3        1 MOL1        -0.2871
      20    H11     19.362111   22.613219   21.379899 H          1 MOL1         0.0754
      21    H12     17.719154   22.160897   20.869885 H          1 MOL1         0.0754
      22    H13     19.044008   22.178672   19.687344 H          1 MOL1         0.0754
@<TRIPOS>BOND
    1     1     2    1
    2     1     3    2
    3     1     4    1
    4     4     5    1
    5     4     6    1
    6     4     7    1
    7     7     8    1
    8     7     9    1
    9     7    10    1
   10    10    11    1
   11    10    12    1
   12    10    13    1
   13    13    14    1
   14    13    15    1
   15    13    16    1
   16    16    17    1
   17    16    18    1
   18    16    19    1
   19    19    20    1
   20    19    21    1
   21    19    22    1
@<TRIPOS>SUBSTRUCTURE
       1 MOL1            1 RESIDUE      1      MOL     
@<SCITEGIC>MOL_PROPERTY
VConf Rank
SciTegic.value.IntegerValue
788

@<SCITEGIC>MOL_PROPERTY
Conf_Id
SciTegic.value.IntegerValue
51

@<SCITEGIC>MOL_PROPERTY
Delta U+W
SciTegic.value.DoubleValue
-0.517

@<SCITEGIC>MOL_PROPERTY
U+W
SciTegic.value.DoubleValue
-53.677

@<SCITEGIC>MOL_PROPERTY
Grad RMS
SciTegic.value.DoubleValue
0.000000

@<SCITEGIC>MOL_PROPERTY
U
SciTegic.value.DoubleValue
7.026

@<SCITEGIC>MOL_PROPERTY
W
SciTegic.value.DoubleValue
-60.703

@<SCITEGIC>MOL_PROPERTY
W(PB)
SciTegic.value.DoubleValue
-63.007

@<SCITEGIC>MOL_PROPERTY
W(SA)
SciTegic.value.DoubleValue
2.304

@<SCITEGIC>MOL_PROPERTY
Valence
SciTegic.value.DoubleValue
7.638

@<SCITEGIC>MOL_PROPERTY
Coulomb
SciTegic.value.DoubleValue
-1.488

@<SCITEGIC>MOL_PROPERTY
VdW
SciTegic.value.DoubleValue
0.877

@<SCITEGIC>MOL_PROPERTY
VdW6
SciTegic.value.DoubleValue
-7.165

@<SCITEGIC>MOL_PROPERTY
VdW12
SciTegic.value.DoubleValue
8.042

@<SCITEGIC>MOL_PROPERTY
Bond
SciTegic.value.DoubleValue
0.134

@<SCITEGIC>MOL_PROPERTY
Angle
SciTegic.value.DoubleValue
2.513

@<SCITEGIC>MOL_PROPERTY
Pdih
SciTegic.value.DoubleValue
4.990

@<SCITEGIC>MOL_PROPERTY
Idih
SciTegic.value.DoubleValue
0.001

@<SCITEGIC>MOL_PROPERTY
Tether
SciTegic.value.DoubleValue
0.000

@<TRIPOS>MOLECULE
guest-s21_confgen4.mol2 : confsearch ligand conformer 789
          22          21           1
SMALL
USER_CHARGES
 
@<TRIPOS>ATOM
       1    C1      21.231335   17.097352   25.060577 C.2        1 MOL1         0.6145
       2    O1      20.935012   15.918954   25.038850 O.co2      1 MOL1        -0.6735
       3    O2      22.376106   17.503536   25.024442 O.co2      1 MOL1        -0.6735
       4    C2      20.103270   18.120668   25.157672 C.3        1 MOL1        -0.1985
       5    H1      20.522323   19.071660   25.508265 H          1 MOL1         0.0740
       6    H2      19.411391   17.773347   25.934018 H          1 MOL1         0.0740
       7    C3      19.328705   18.333406   23.831104 C.3        1 MOL1        -0.1882
       8    H3      18.939288   17.368261   23.478253 H          1 MOL1         0.0742
       9    H4      18.457661   18.973676   24.025726 H          1 MOL1         0.0742
      10    C4      20.200396   18.979768   22.731122 C.3        1 MOL1        -0.1880
      11    H5      21.065352   18.336289   22.518535 H          1 MOL1         0.0742
      12    H6      20.597818   19.937749   23.093536 H          1 MOL1         0.0742
      13    C5      19.401254   19.211035   21.430608 C.3        1 MOL1        -0.1880
      14    H7      19.004202   18.252617   21.068818 H          1 MOL1         0.0742
      15    H8      18.537307   19.856637   21.640016 H          1 MOL1         0.0742
      16    C6      20.271328   19.855792   20.331377 C.3        1 MOL1        -0.1856
      17    H9      21.135741   19.211792   20.117938 H          1 MOL1         0.0742
      18    H10     20.668968   20.815674   20.689106 H          1 MOL1         0.0742
      19    C7      19.470140   20.084615   19.034037 C.3        1 MOL1        -0.2871
      20    H11     19.086809   19.135661   18.636616 H          1 MOL1         0.0754
      21    H12     20.103780   20.543312   18.263852 H          1 MOL1         0.0754
      22    H13     18.616446   20.751625   19.212084 H          1 MOL1         0.0754
@<TRIPOS>BOND
    1     1     2    1
    2     1     3    2
    3     1     4    1
    4     4     5    1
    5     4     6    1
    6     4     7    1
    7     7     8    1
    8     7     9    1
    9     7    10    1
   10    10    11    1
   11    10    12    1
   12    10    13    1
   13    13    14    1
   14    13    15    1
   15    13    16    1
   16    16    17    1
   17    16    18    1
   18    16    19    1
   19    19    20    1
   20    19    21    1
   21    19    22    1
@<TRIPOS>SUBSTRUCTURE
       1 MOL1            1 RESIDUE      1      MOL     
@<SCITEGIC>MOL_PROPERTY
VConf Rank
SciTegic.value.IntegerValue
789

@<SCITEGIC>MOL_PROPERTY
Conf_Id
SciTegic.value.IntegerValue
43

@<SCITEGIC>MOL_PROPERTY
Delta U+W
SciTegic.value.DoubleValue
-0.129

@<SCITEGIC>MOL_PROPERTY
U+W
SciTegic.value.DoubleValue
-53.289

@<SCITEGIC>MOL_PROPERTY
Grad RMS
SciTegic.value.DoubleValue
0.000000

@<SCITEGIC>MOL_PROPERTY
U
SciTegic.value.DoubleValue
7.937

@<SCITEGIC>MOL_PROPERTY
W
SciTegic.value.DoubleValue
-61.225

@<SCITEGIC>MOL_PROPERTY
W(PB)
SciTegic.value.DoubleValue
-63.523

@<SCITEGIC>MOL_PROPERTY
W(SA)
SciTegic.value.DoubleValue
2.297

@<SCITEGIC>MOL_PROPERTY
Valence
SciTegic.value.DoubleValue
7.358

@<SCITEGIC>MOL_PROPERTY
Coulomb
SciTegic.value.DoubleValue
-0.022

@<SCITEGIC>MOL_PROPERTY
VdW
SciTegic.value.DoubleValue
0.601

@<SCITEGIC>MOL_PROPERTY
VdW6
SciTegic.value.DoubleValue
-7.363

@<SCITEGIC>MOL_PROPERTY
VdW12
SciTegic.value.DoubleValue
7.964

@<SCITEGIC>MOL_PROPERTY
Bond
SciTegic.value.DoubleValue
0.121

@<SCITEGIC>MOL_PROPERTY
Angle
SciTegic.value.DoubleValue
2.425

@<SCITEGIC>MOL_PROPERTY
Pdih
SciTegic.value.DoubleValue
4.811

@<SCITEGIC>MOL_PROPERTY
Idih
SciTegic.value.DoubleValue
0.000

@<SCITEGIC>MOL_PROPERTY
Tether
SciTegic.value.DoubleValue
0.000

@<TRIPOS>MOLECULE
guest-s21_confgen4.mol2 : confsearch ligand conformer 790
          22          21           1
SMALL
USER_CHARGES
 
@<TRIPOS>ATOM
       1    C1      18.951057   22.396082   21.678222 C.2        1 MOL1         0.6145
       2    O1      18.528644   22.995358   22.647417 O.co2      1 MOL1        -0.6735
       3    O2      18.312027   22.232935   20.657528 O.co2      1 MOL1        -0.6735
       4    C2      20.368651   21.834384   21.741890 C.3        1 MOL1        -0.1985
       5    H1      21.013980   22.618871   22.154408 H          1 MOL1         0.0740
       6    H2      20.715754   21.642940   20.719260 H          1 MOL1         0.0740
       7    C3      20.500335   20.550257   22.601351 C.3        1 MOL1        -0.1882
       8    H3      21.564418   20.298010   22.704509 H          1 MOL1         0.0742
       9    H4      20.122964   20.749803   23.613984 H          1 MOL1         0.0742
      10    C4      19.748412   19.346560   21.990356 C.3        1 MOL1        -0.1880
      11    H5      20.120047   19.159503   20.973541 H          1 MOL1         0.0742
      12    H6      18.679619   19.585069   21.899794 H          1 MOL1         0.0742
      13    C5      19.918911   18.072266   22.845085 C.3        1 MOL1        -0.1880
      14    H7      20.986779   17.830028   22.934744 H          1 MOL1         0.0742
      15    H8      19.547017   18.260109   23.861706 H          1 MOL1         0.0742
      16    C6      19.167635   16.869944   22.235940 C.3        1 MOL1        -0.1856
      17    H9      19.538185   16.677963   21.219427 H          1 MOL1         0.0742
      18    H10     18.098604   17.107971   22.146387 H          1 MOL1         0.0742
      19    C7      19.339658   15.599466   23.092476 C.3        1 MOL1        -0.2871
      20    H11     20.398414   15.320160   23.172600 H          1 MOL1         0.0754
      21    H12     18.799327   14.755132   22.645008 H          1 MOL1         0.0754
      22    H13     18.947950   15.753425   24.106509 H          1 MOL1         0.0754
@<TRIPOS>BOND
    1     1     2    1
    2     1     3    2
    3     1     4    1
    4     4     5    1
    5     4     6    1
    6     4     7    1
    7     7     8    1
    8     7     9    1
    9     7    10    1
   10    10    11    1
   11    10    12    1
   12    10    13    1
   13    13    14    1
   14    13    15    1
   15    13    16    1
   16    16    17    1
   17    16    18    1
   18    16    19    1
   19    19    20    1
   20    19    21    1
   21    19    22    1
@<TRIPOS>SUBSTRUCTURE
       1 MOL1            1 RESIDUE      1      MOL     
@<SCITEGIC>MOL_PROPERTY
VConf Rank
SciTegic.value.IntegerValue
790

@<SCITEGIC>MOL_PROPERTY
Conf_Id
SciTegic.value.IntegerValue
44

@<SCITEGIC>MOL_PROPERTY
Delta U+W
SciTegic.value.DoubleValue
-0.155

@<SCITEGIC>MOL_PROPERTY
U+W
SciTegic.value.DoubleValue
-53.314

@<SCITEGIC>MOL_PROPERTY
Grad RMS
SciTegic.value.DoubleValue
0.000000

@<SCITEGIC>MOL_PROPERTY
U
SciTegic.value.DoubleValue
7.937

@<SCITEGIC>MOL_PROPERTY
W
SciTegic.value.DoubleValue
-61.252

@<SCITEGIC>MOL_PROPERTY
W(PB)
SciTegic.value.DoubleValue
-63.556

@<SCITEGIC>MOL_PROPERTY
W(SA)
SciTegic.value.DoubleValue
2.304

@<SCITEGIC>MOL_PROPERTY
Valence
SciTegic.value.DoubleValue
7.358

@<SCITEGIC>MOL_PROPERTY
Coulomb
SciTegic.value.DoubleValue
-0.021

@<SCITEGIC>MOL_PROPERTY
VdW
SciTegic.value.DoubleValue
0.600

@<SCITEGIC>MOL_PROPERTY
VdW6
SciTegic.value.DoubleValue
-7.363

@<SCITEGIC>MOL_PROPERTY
VdW12
SciTegic.value.DoubleValue
7.964

@<SCITEGIC>MOL_PROPERTY
Bond
SciTegic.value.DoubleValue
0.121

@<SCITEGIC>MOL_PROPERTY
Angle
SciTegic.value.DoubleValue
2.425

@<SCITEGIC>MOL_PROPERTY
Pdih
SciTegic.value.DoubleValue
4.811

@<SCITEGIC>MOL_PROPERTY
Idih
SciTegic.value.DoubleValue
0.001

@<SCITEGIC>MOL_PROPERTY
Tether
SciTegic.value.DoubleValue
0.000

@<TRIPOS>MOLECULE
guest-s21_confgen4.mol2 : confsearch ligand conformer 791
          22          21           1
SMALL
USER_CHARGES
 
@<TRIPOS>ATOM
       1    C1      20.666962   20.970346   25.112621 C.2        1 MOL1         0.6145
       2    O1      19.942657   20.750902   26.063489 O.co2      1 MOL1        -0.6735
       3    O2      20.928577   22.086909   24.710487 O.co2      1 MOL1        -0.6735
       4    C2      21.296583   19.777884   24.397833 C.3        1 MOL1        -0.1985
       5    H1      21.689773   19.104884   25.168873 H          1 MOL1         0.0740
       6    H2      22.156824   20.131634   23.816682 H          1 MOL1         0.0740
       7    C3      20.316083   18.999093   23.482558 C.3        1 MOL1        -0.1882
       8    H3      20.813405   18.082377   23.141285 H          1 MOL1         0.0742
       9    H4      19.441267   18.686384   24.069340 H          1 MOL1         0.0742
      10    C4      19.858098   19.830076   22.259885 C.3        1 MOL1        -0.1880
      11    H5      20.730184   20.106039   21.651517 H          1 MOL1         0.0742
      12    H6      19.415086   20.772442   22.610136 H          1 MOL1         0.0742
      13    C5      18.817507   19.103344   21.375094 C.3        1 MOL1        -0.1880
      14    H7      17.945682   18.827375   21.983929 H          1 MOL1         0.0742
      15    H8      18.454505   19.808884   20.615261 H          1 MOL1         0.0742
      16    C6      19.377082   17.848910   20.666789 C.3        1 MOL1        -0.1856
      17    H9      19.672240   17.095159   21.408380 H          1 MOL1         0.0742
      18    H10     20.281060   18.114632   20.101625 H          1 MOL1         0.0742
      19    C7      18.338588   17.229805   19.709722 C.3        1 MOL1        -0.2871
      20    H11     17.433515   16.929561   20.253855 H          1 MOL1         0.0754
      21    H12     18.749330   16.338809   19.217300 H          1 MOL1         0.0754
      22    H13     18.048052   17.944705   18.928784 H          1 MOL1         0.0754
@<TRIPOS>BOND
    1     1     2    1
    2     1     3    2
    3     1     4    1
    4     4     5    1
    5     4     6    1
    6     4     7    1
    7     7     8    1
    8     7     9    1
    9     7    10    1
   10    10    11    1
   11    10    12    1
   12    10    13    1
   13    13    14    1
   14    13    15    1
   15    13    16    1
   16    16    17    1
   17    16    18    1
   18    16    19    1
   19    19    20    1
   20    19    21    1
   21    19    22    1
@<TRIPOS>SUBSTRUCTURE
       1 MOL1            1 RESIDUE      1      MOL     
@<SCITEGIC>MOL_PROPERTY
VConf Rank
SciTegic.value.IntegerValue
791

@<SCITEGIC>MOL_PROPERTY
Conf_Id
SciTegic.value.IntegerValue
53

@<SCITEGIC>MOL_PROPERTY
Delta U+W
SciTegic.value.DoubleValue
0.723

@<SCITEGIC>MOL_PROPERTY
U+W
SciTegic.value.DoubleValue
-52.436

@<SCITEGIC>MOL_PROPERTY
Grad RMS
SciTegic.value.DoubleValue
0.000000

@<SCITEGIC>MOL_PROPERTY
U
SciTegic.value.DoubleValue
8.587

@<SCITEGIC>MOL_PROPERTY
W
SciTegic.value.DoubleValue
-61.022

@<SCITEGIC>MOL_PROPERTY
W(PB)
SciTegic.value.DoubleValue
-63.285

@<SCITEGIC>MOL_PROPERTY
W(SA)
SciTegic.value.DoubleValue
2.263

@<SCITEGIC>MOL_PROPERTY
Valence
SciTegic.value.DoubleValue
7.933

@<SCITEGIC>MOL_PROPERTY
Coulomb
SciTegic.value.DoubleValue
-0.124

@<SCITEGIC>MOL_PROPERTY
VdW
SciTegic.value.DoubleValue
0.778

@<SCITEGIC>MOL_PROPERTY
VdW6
SciTegic.value.DoubleValue
-7.981

@<SCITEGIC>MOL_PROPERTY
VdW12
SciTegic.value.DoubleValue
8.759

@<SCITEGIC>MOL_PROPERTY
Bond
SciTegic.value.DoubleValue
0.160

@<SCITEGIC>MOL_PROPERTY
Angle
SciTegic.value.DoubleValue
2.698

@<SCITEGIC>MOL_PROPERTY
Pdih
SciTegic.value.DoubleValue
5.074

@<SCITEGIC>MOL_PROPERTY
Idih
SciTegic.value.DoubleValue
0.001

@<SCITEGIC>MOL_PROPERTY
Tether
SciTegic.value.DoubleValue
0.000

@<TRIPOS>MOLECULE
guest-s21_confgen4.mol2 : confsearch ligand conformer 792
          22          21           1
SMALL
USER_CHARGES
 
@<TRIPOS>ATOM
       1    C1      19.781705   21.260887   19.894552 C.2        1 MOL1         0.6145
       2    O1      20.636447   22.091209   20.132355 O.co2      1 MOL1        -0.6735
       3    O2      19.117949   21.251359   18.876751 O.co2      1 MOL1        -0.6735
       4    C2      19.544168   20.157411   20.919207 C.3        1 MOL1        -0.1985
       5    H1      18.488735   19.864836   20.866845 H          1 MOL1         0.0740
       6    H2      19.720097   20.584682   21.912795 H          1 MOL1         0.0740
       7    C3      20.454528   18.923735   20.694651 C.3        1 MOL1        -0.1882
       8    H3      20.358663   18.601394   19.648550 H          1 MOL1         0.0742
       9    H4      21.503956   19.219796   20.829945 H          1 MOL1         0.0742
      10    C4      20.132945   17.717113   21.611882 C.3        1 MOL1        -0.1880
      11    H5      20.806147   16.896943   21.327157 H          1 MOL1         0.0742
      12    H6      19.116430   17.351443   21.412037 H          1 MOL1         0.0742
      13    C5      20.318254   17.989658   23.126176 C.3        1 MOL1        -0.1880
      14    H7      20.714149   17.079716   23.597627 H          1 MOL1         0.0742
      15    H8      21.078025   18.768270   23.279395 H          1 MOL1         0.0742
      16    C6      19.003800   18.370421   23.845886 C.3        1 MOL1        -0.1856
      17    H9      18.273811   17.557165   23.732197 H          1 MOL1         0.0742
      18    H10     18.555970   19.260163   23.387438 H          1 MOL1         0.0742
      19    C7      19.237802   18.637612   25.346281 C.3        1 MOL1        -0.2871
      20    H11     19.648957   17.749783   25.844321 H          1 MOL1         0.0754
      21    H12     18.295187   18.899538   25.844179 H          1 MOL1         0.0754
      22    H13     19.940264   19.468732   25.491699 H          1 MOL1         0.0754
@<TRIPOS>BOND
    1     1     2    1
    2     1     3    2
    3     1     4    1
    4     4     5    1
    5     4     6    1
    6     4     7    1
    7     7     8    1
    8     7     9    1
    9     7    10    1
   10    10    11    1
   11    10    12    1
   12    10    13    1
   13    13    14    1
   14    13    15    1
   15    13    16    1
   16    16    17    1
   17    16    18    1
   18    16    19    1
   19    19    20    1
   20    19    21    1
   21    19    22    1
@<TRIPOS>SUBSTRUCTURE
       1 MOL1            1 RESIDUE      1      MOL     
@<SCITEGIC>MOL_PROPERTY
VConf Rank
SciTegic.value.IntegerValue
792

@<SCITEGIC>MOL_PROPERTY
Conf_Id
SciTegic.value.IntegerValue
5

@<SCITEGIC>MOL_PROPERTY
Delta U+W
SciTegic.value.DoubleValue
2.167

@<SCITEGIC>MOL_PROPERTY
U+W
SciTegic.value.DoubleValue
-50.993

@<SCITEGIC>MOL_PROPERTY
Grad RMS
SciTegic.value.DoubleValue
0.000000

@<SCITEGIC>MOL_PROPERTY
U
SciTegic.value.DoubleValue
10.045

@<SCITEGIC>MOL_PROPERTY
W
SciTegic.value.DoubleValue
-61.037

@<SCITEGIC>MOL_PROPERTY
W(PB)
SciTegic.value.DoubleValue
-63.303

@<SCITEGIC>MOL_PROPERTY
W(SA)
SciTegic.value.DoubleValue
2.266

@<SCITEGIC>MOL_PROPERTY
Valence
SciTegic.value.DoubleValue
10.100

@<SCITEGIC>MOL_PROPERTY
Coulomb
SciTegic.value.DoubleValue
-0.883

@<SCITEGIC>MOL_PROPERTY
VdW
SciTegic.value.DoubleValue
0.828

@<SCITEGIC>MOL_PROPERTY
VdW6
SciTegic.value.DoubleValue
-8.177

@<SCITEGIC>MOL_PROPERTY
VdW12
SciTegic.value.DoubleValue
9.005

@<SCITEGIC>MOL_PROPERTY
Bond
SciTegic.value.DoubleValue
0.182

@<SCITEGIC>MOL_PROPERTY
Angle
SciTegic.value.DoubleValue
2.988

@<SCITEGIC>MOL_PROPERTY
Pdih
SciTegic.value.DoubleValue
6.930

@<SCITEGIC>MOL_PROPERTY
Idih
SciTegic.value.DoubleValue
0.001

@<SCITEGIC>MOL_PROPERTY
Tether
SciTegic.value.DoubleValue
0.000

@<TRIPOS>MOLECULE
guest-s21_confgen4.mol2 : confsearch ligand conformer 793
          22          21           1
SMALL
USER_CHARGES
 
@<TRIPOS>ATOM
       1    C1      17.353573   20.279632   20.634269 C.2        1 MOL1         0.6145
       2    O1      16.451836   20.548975   21.402965 O.co2      1 MOL1        -0.6735
       3    O2      17.278443   20.428811   19.430656 O.co2      1 MOL1        -0.6735
       4    C2      18.641749   19.701384   21.208929 C.3        1 MOL1        -0.1985
       5    H1      18.795587   20.151927   22.195882 H          1 MOL1         0.0740
       6    H2      19.473186   20.017214   20.567645 H          1 MOL1         0.0740
       7    C3      18.608231   18.156289   21.321620 C.3        1 MOL1        -0.1882
       8    H3      17.821099   17.862751   22.029797 H          1 MOL1         0.0742
       9    H4      18.316795   17.738671   20.347925 H          1 MOL1         0.0742
      10    C4      19.954173   17.517465   21.747079 C.3        1 MOL1        -0.1880
      11    H5      20.725160   17.723555   20.992057 H          1 MOL1         0.0742
      12    H6      19.818039   16.427324   21.744268 H          1 MOL1         0.0742
      13    C5      20.452578   17.937715   23.153028 C.3        1 MOL1        -0.1880
      14    H7      19.599132   18.199192   23.793515 H          1 MOL1         0.0742
      15    H8      20.934208   17.070432   23.625093 H          1 MOL1         0.0742
      16    C6      21.476073   19.096206   23.119659 C.3        1 MOL1        -0.1856
      17    H9      21.046504   19.977311   22.628242 H          1 MOL1         0.0742
      18    H10     22.349146   18.798024   22.522981 H          1 MOL1         0.0742
      19    C7      21.938216   19.483228   24.538804 C.3        1 MOL1        -0.2871
      20    H11     21.089617   19.817174   25.150129 H          1 MOL1         0.0754
      21    H12     22.669147   20.301218   24.497987 H          1 MOL1         0.0754
      22    H13     22.410979   18.631079   25.044442 H          1 MOL1         0.0754
@<TRIPOS>BOND
    1     1     2    1
    2     1     3    2
    3     1     4    1
    4     4     5    1
    5     4     6    1
    6     4     7    1
    7     7     8    1
    8     7     9    1
    9     7    10    1
   10    10    11    1
   11    10    12    1
   12    10    13    1
   13    13    14    1
   14    13    15    1
   15    13    16    1
   16    16    17    1
   17    16    18    1
   18    16    19    1
   19    19    20    1
   20    19    21    1
   21    19    22    1
@<TRIPOS>SUBSTRUCTURE
       1 MOL1            1 RESIDUE      1      MOL     
@<SCITEGIC>MOL_PROPERTY
VConf Rank
SciTegic.value.IntegerValue
793

@<SCITEGIC>MOL_PROPERTY
Conf_Id
SciTegic.value.IntegerValue
6

@<SCITEGIC>MOL_PROPERTY
Delta U+W
SciTegic.value.DoubleValue
2.118

@<SCITEGIC>MOL_PROPERTY
U+W
SciTegic.value.DoubleValue
-51.042

@<SCITEGIC>MOL_PROPERTY
Grad RMS
SciTegic.value.DoubleValue
0.000000

@<SCITEGIC>MOL_PROPERTY
U
SciTegic.value.DoubleValue
10.045

@<SCITEGIC>MOL_PROPERTY
W
SciTegic.value.DoubleValue
-61.086

@<SCITEGIC>MOL_PROPERTY
W(PB)
SciTegic.value.DoubleValue
-63.356

@<SCITEGIC>MOL_PROPERTY
W(SA)
SciTegic.value.DoubleValue
2.270

@<SCITEGIC>MOL_PROPERTY
Valence
SciTegic.value.DoubleValue
10.100

@<SCITEGIC>MOL_PROPERTY
Coulomb
SciTegic.value.DoubleValue
-0.883

@<SCITEGIC>MOL_PROPERTY
VdW
SciTegic.value.DoubleValue
0.828

@<SCITEGIC>MOL_PROPERTY
VdW6
SciTegic.value.DoubleValue
-8.177

@<SCITEGIC>MOL_PROPERTY
VdW12
SciTegic.value.DoubleValue
9.004

@<SCITEGIC>MOL_PROPERTY
Bond
SciTegic.value.DoubleValue
0.182

@<SCITEGIC>MOL_PROPERTY
Angle
SciTegic.value.DoubleValue
2.988

@<SCITEGIC>MOL_PROPERTY
Pdih
SciTegic.value.DoubleValue
6.930

@<SCITEGIC>MOL_PROPERTY
Idih
SciTegic.value.DoubleValue
0.001

@<SCITEGIC>MOL_PROPERTY
Tether
SciTegic.value.DoubleValue
0.000

@<TRIPOS>MOLECULE
guest-s21_confgen4.mol2 : confsearch ligand conformer 794
          22          21           1
SMALL
USER_CHARGES
 
@<TRIPOS>ATOM
       1    C1      19.773097   18.168160   25.186526 C.2        1 MOL1         0.6145
       2    O1      20.283725   17.065117   25.179443 O.co2      1 MOL1        -0.6735
       3    O2      18.602366   18.363066   25.448170 O.co2      1 MOL1        -0.6735
       4    C2      20.663329   19.381078   24.922381 C.3        1 MOL1        -0.1985
       5    H1      21.400069   19.404976   25.733661 H          1 MOL1         0.0740
       6    H2      20.061436   20.292871   25.018300 H          1 MOL1         0.0740
       7    C3      21.411934   19.370925   23.559822 C.3        1 MOL1        -0.1882
       8    H3      22.264982   20.058538   23.636761 H          1 MOL1         0.0742
       9    H4      21.841442   18.376338   23.375726 H          1 MOL1         0.0742
      10    C4      20.557684   19.813541   22.346043 C.3        1 MOL1        -0.1880
      11    H5      21.223933   19.916487   21.478582 H          1 MOL1         0.0742
      12    H6      20.138471   20.811553   22.533291 H          1 MOL1         0.0742
      13    C5      19.420176   18.831834   21.984330 C.3        1 MOL1        -0.1880
      14    H7      19.824653   17.814013   21.897804 H          1 MOL1         0.0742
      15    H8      18.673373   18.813675   22.788082 H          1 MOL1         0.0742
      16    C6      18.724795   19.225953   20.664079 C.3        1 MOL1        -0.1856
      17    H9      19.459433   19.239759   19.847090 H          1 MOL1         0.0742
      18    H10     18.321239   20.244499   20.748467 H          1 MOL1         0.0742
      19    C7      17.584360   18.250573   20.309878 C.3        1 MOL1        -0.2871
      20    H11     17.965753   17.228194   20.188847 H          1 MOL1         0.0754
      21    H12     17.100386   18.545714   19.369833 H          1 MOL1         0.0754
      22    H13     16.818846   18.239666   21.096880 H          1 MOL1         0.0754
@<TRIPOS>BOND
    1     1     2    1
    2     1     3    2
    3     1     4    1
    4     4     5    1
    5     4     6    1
    6     4     7    1
    7     7     8    1
    8     7     9    1
    9     7    10    1
   10    10    11    1
   11    10    12    1
   12    10    13    1
   13    13    14    1
   14    13    15    1
   15    13    16    1
   16    16    17    1
   17    16    18    1
   18    16    19    1
   19    19    20    1
   20    19    21    1
   21    19    22    1
@<TRIPOS>SUBSTRUCTURE
       1 MOL1            1 RESIDUE      1      MOL     
@<SCITEGIC>MOL_PROPERTY
VConf Rank
SciTegic.value.IntegerValue
794

@<SCITEGIC>MOL_PROPERTY
Conf_Id
SciTegic.value.IntegerValue
8

@<SCITEGIC>MOL_PROPERTY
Delta U+W
SciTegic.value.DoubleValue
1.886

@<SCITEGIC>MOL_PROPERTY
U+W
SciTegic.value.DoubleValue
-51.274

@<SCITEGIC>MOL_PROPERTY
Grad RMS
SciTegic.value.DoubleValue
0.000000

@<SCITEGIC>MOL_PROPERTY
U
SciTegic.value.DoubleValue
11.237

@<SCITEGIC>MOL_PROPERTY
W
SciTegic.value.DoubleValue
-62.510

@<SCITEGIC>MOL_PROPERTY
W(PB)
SciTegic.value.DoubleValue
-64.777

@<SCITEGIC>MOL_PROPERTY
W(SA)
SciTegic.value.DoubleValue
2.267

@<SCITEGIC>MOL_PROPERTY
Valence
SciTegic.value.DoubleValue
9.029

@<SCITEGIC>MOL_PROPERTY
Coulomb
SciTegic.value.DoubleValue
1.667

@<SCITEGIC>MOL_PROPERTY
VdW
SciTegic.value.DoubleValue
0.540

@<SCITEGIC>MOL_PROPERTY
VdW6
SciTegic.value.DoubleValue
-8.825

@<SCITEGIC>MOL_PROPERTY
VdW12
SciTegic.value.DoubleValue
9.365

@<SCITEGIC>MOL_PROPERTY
Bond
SciTegic.value.DoubleValue
0.186

@<SCITEGIC>MOL_PROPERTY
Angle
SciTegic.value.DoubleValue
3.195

@<SCITEGIC>MOL_PROPERTY
Pdih
SciTegic.value.DoubleValue
5.642

@<SCITEGIC>MOL_PROPERTY
Idih
SciTegic.value.DoubleValue
0.007

@<SCITEGIC>MOL_PROPERTY
Tether
SciTegic.value.DoubleValue
0.000

@<TRIPOS>MOLECULE
guest-s21_confgen4.mol2 : confsearch ligand conformer 795
          22          21           1
SMALL
USER_CHARGES
 
@<TRIPOS>ATOM
       1    C1      16.649756   18.962635   23.051392 C.2        1 MOL1         0.6145
       2    O1      16.553512   20.033136   22.484356 O.co2      1 MOL1        -0.6735
       3    O2      16.144770   18.726424   24.131439 O.co2      1 MOL1        -0.6735
       4    C2      17.420828   17.842969   22.357880 C.3        1 MOL1        -0.1985
       5    H1      17.563544   18.113846   21.305756 H          1 MOL1         0.0740
       6    H2      16.779155   16.954180   22.363587 H          1 MOL1         0.0740
       7    C3      18.779870   17.498187   23.026668 C.3        1 MOL1        -0.1882
       8    H3      18.588570   17.155793   24.053068 H          1 MOL1         0.0742
       9    H4      19.235826   16.649195   22.499744 H          1 MOL1         0.0742
      10    C4      19.790816   18.670537   23.074781 C.3        1 MOL1        -0.1880
      11    H5      20.665799   18.339378   23.648132 H          1 MOL1         0.0742
      12    H6      19.356445   19.512381   23.631147 H          1 MOL1         0.0742
      13    C5      20.243347   19.152009   21.674479 C.3        1 MOL1        -0.1880
      14    H7      20.660348   18.308662   21.107585 H          1 MOL1         0.0742
      15    H8      19.369012   19.506016   21.113096 H          1 MOL1         0.0742
      16    C6      21.274953   20.303217   21.724572 C.3        1 MOL1        -0.1856
      17    H9      20.866108   21.142270   22.304410 H          1 MOL1         0.0742
      18    H10     21.431328   20.679033   20.704040 H          1 MOL1         0.0742
      19    C7      22.639849   19.880563   22.310435 C.3        1 MOL1        -0.2871
      20    H11     22.556212   19.611207   23.370529 H          1 MOL1         0.0754
      21    H12     23.361326   20.704286   22.233946 H          1 MOL1         0.0754
      22    H13     23.051127   19.019906   21.767096 H          1 MOL1         0.0754
@<TRIPOS>BOND
    1     1     2    1
    2     1     3    2
    3     1     4    1
    4     4     5    1
    5     4     6    1
    6     4     7    1
    7     7     8    1
    8     7     9    1
    9     7    10    1
   10    10    11    1
   11    10    12    1
   12    10    13    1
   13    13    14    1
   14    13    15    1
   15    13    16    1
   16    16    17    1
   17    16    18    1
   18    16    19    1
   19    19    20    1
   20    19    21    1
   21    19    22    1
@<TRIPOS>SUBSTRUCTURE
       1 MOL1            1 RESIDUE      1      MOL     
@<SCITEGIC>MOL_PROPERTY
VConf Rank
SciTegic.value.IntegerValue
795

@<SCITEGIC>MOL_PROPERTY
Conf_Id
SciTegic.value.IntegerValue
93

@<SCITEGIC>MOL_PROPERTY
Delta U+W
SciTegic.value.DoubleValue
1.836

@<SCITEGIC>MOL_PROPERTY
U+W
SciTegic.value.DoubleValue
-51.323

@<SCITEGIC>MOL_PROPERTY
Grad RMS
SciTegic.value.DoubleValue
0.000000

@<SCITEGIC>MOL_PROPERTY
U
SciTegic.value.DoubleValue
10.427

@<SCITEGIC>MOL_PROPERTY
W
SciTegic.value.DoubleValue
-61.751

@<SCITEGIC>MOL_PROPERTY
W(PB)
SciTegic.value.DoubleValue
-63.980

@<SCITEGIC>MOL_PROPERTY
W(SA)
SciTegic.value.DoubleValue
2.230

@<SCITEGIC>MOL_PROPERTY
Valence
SciTegic.value.DoubleValue
8.446

@<SCITEGIC>MOL_PROPERTY
Coulomb
SciTegic.value.DoubleValue
1.306

@<SCITEGIC>MOL_PROPERTY
VdW
SciTegic.value.DoubleValue
0.676

@<SCITEGIC>MOL_PROPERTY
VdW6
SciTegic.value.DoubleValue
-8.928

@<SCITEGIC>MOL_PROPERTY
VdW12
SciTegic.value.DoubleValue
9.604

@<SCITEGIC>MOL_PROPERTY
Bond
SciTegic.value.DoubleValue
0.209

@<SCITEGIC>MOL_PROPERTY
Angle
SciTegic.value.DoubleValue
3.066

@<SCITEGIC>MOL_PROPERTY
Pdih
SciTegic.value.DoubleValue
5.170

@<SCITEGIC>MOL_PROPERTY
Idih
SciTegic.value.DoubleValue
0.001

@<SCITEGIC>MOL_PROPERTY
Tether
SciTegic.value.DoubleValue
0.000

@<TRIPOS>MOLECULE
guest-s21_confgen4.mol2 : confsearch ligand conformer 796
          22          21           1
SMALL
USER_CHARGES
 
@<TRIPOS>ATOM
       1    C1      21.661218   20.781223   20.720311 C.2        1 MOL1         0.6145
       2    O1      21.905096   21.962022   20.873749 O.co2      1 MOL1        -0.6735
       3    O2      21.146564   20.326131   19.717919 O.co2      1 MOL1        -0.6735
       4    C2      22.050829   19.815658   21.836130 C.3        1 MOL1        -0.1985
       5    H1      23.095260   20.023562   22.096249 H          1 MOL1         0.0740
       6    H2      22.028783   18.794041   21.440501 H          1 MOL1         0.0740
       7    C3      21.172223   19.930825   23.112037 C.3        1 MOL1        -0.1882
       8    H3      21.557373   19.244422   23.878092 H          1 MOL1         0.0742
       9    H4      21.282796   20.943628   23.523535 H          1 MOL1         0.0742
      10    C4      19.666268   19.648671   22.885714 C.3        1 MOL1        -0.1880
      11    H5      19.263614   20.354480   22.146371 H          1 MOL1         0.0742
      12    H6      19.138974   19.851653   23.826328 H          1 MOL1         0.0742
      13    C5      19.372452   18.197729   22.431972 C.3        1 MOL1        -0.1880
      14    H7      19.880886   18.006507   21.478104 H          1 MOL1         0.0742
      15    H8      19.790861   17.488388   23.158789 H          1 MOL1         0.0742
      16    C6      17.865882   17.909131   22.234610 C.3        1 MOL1        -0.1856
      17    H9      17.755644   16.915835   21.778117 H          1 MOL1         0.0742
      18    H10     17.441471   18.627477   21.519603 H          1 MOL1         0.0742
      19    C7      17.056321   17.941762   23.549279 C.3        1 MOL1        -0.2871
      20    H11     17.034424   18.949126   23.982970 H          1 MOL1         0.0754
      21    H12     17.484591   17.255702   24.291576 H          1 MOL1         0.0754
      22    H13     16.017652   17.636839   23.367383 H          1 MOL1         0.0754
@<TRIPOS>BOND
    1     1     2    1
    2     1     3    2
    3     1     4    1
    4     4     5    1
    5     4     6    1
    6     4     7    1
    7     7     8    1
    8     7     9    1
    9     7    10    1
   10    10    11    1
   11    10    12    1
   12    10    13    1
   13    13    14    1
   14    13    15    1
   15    13    16    1
   16    16    17    1
   17    16    18    1
   18    16    19    1
   19    19    20    1
   20    19    21    1
   21    19    22    1
@<TRIPOS>SUBSTRUCTURE
       1 MOL1            1 RESIDUE      1      MOL     
@<SCITEGIC>MOL_PROPERTY
VConf Rank
SciTegic.value.IntegerValue
796

@<SCITEGIC>MOL_PROPERTY
Conf_Id
SciTegic.value.IntegerValue
70

@<SCITEGIC>MOL_PROPERTY
Delta U+W
SciTegic.value.DoubleValue
1.803

@<SCITEGIC>MOL_PROPERTY
U+W
SciTegic.value.DoubleValue
-51.356

@<SCITEGIC>MOL_PROPERTY
Grad RMS
SciTegic.value.DoubleValue
0.000000

@<SCITEGIC>MOL_PROPERTY
U
SciTegic.value.DoubleValue
10.428

@<SCITEGIC>MOL_PROPERTY
W
SciTegic.value.DoubleValue
-61.784

@<SCITEGIC>MOL_PROPERTY
W(PB)
SciTegic.value.DoubleValue
-64.014

@<SCITEGIC>MOL_PROPERTY
W(SA)
SciTegic.value.DoubleValue
2.230

@<SCITEGIC>MOL_PROPERTY
Valence
SciTegic.value.DoubleValue
8.445

@<SCITEGIC>MOL_PROPERTY
Coulomb
SciTegic.value.DoubleValue
1.306

@<SCITEGIC>MOL_PROPERTY
VdW
SciTegic.value.DoubleValue
0.676

@<SCITEGIC>MOL_PROPERTY
VdW6
SciTegic.value.DoubleValue
-8.929

@<SCITEGIC>MOL_PROPERTY
VdW12
SciTegic.value.DoubleValue
9.605

@<SCITEGIC>MOL_PROPERTY
Bond
SciTegic.value.DoubleValue
0.209

@<SCITEGIC>MOL_PROPERTY
Angle
SciTegic.value.DoubleValue
3.066

@<SCITEGIC>MOL_PROPERTY
Pdih
SciTegic.value.DoubleValue
5.170

@<SCITEGIC>MOL_PROPERTY
Idih
SciTegic.value.DoubleValue
0.001

@<SCITEGIC>MOL_PROPERTY
Tether
SciTegic.value.DoubleValue
0.000

@<TRIPOS>MOLECULE
guest-s21_confgen4.mol2 : confsearch ligand conformer 797
          22          21           1
SMALL
USER_CHARGES
 
@<TRIPOS>ATOM
       1    C1      18.268272   16.578705   20.628405 C.2        1 MOL1         0.6145
       2    O1      17.860154   15.811194   21.477686 O.co2      1 MOL1        -0.6735
       3    O2      19.029786   16.253943   19.738740 O.co2      1 MOL1        -0.6735
       4    C2      17.779916   18.023970   20.670995 C.3        1 MOL1        -0.1985
       5    H1      16.697631   17.999952   20.844550 H          1 MOL1         0.0740
       6    H2      17.932831   18.474479   19.682816 H          1 MOL1         0.0740
       7    C3      18.460903   18.886640   21.765088 C.3        1 MOL1        -0.1882
       8    H3      17.961342   19.863658   21.811357 H          1 MOL1         0.0742
       9    H4      18.310952   18.406272   22.740994 H          1 MOL1         0.0742
      10    C4      19.970623   19.096922   21.498460 C.3        1 MOL1        -0.1880
      11    H5      20.101479   19.496480   20.483536 H          1 MOL1         0.0742
      12    H6      20.491589   18.129729   21.519378 H          1 MOL1         0.0742
      13    C5      20.643687   20.066464   22.498710 C.3        1 MOL1        -0.1880
      14    H7      21.673410   20.252113   22.163903 H          1 MOL1         0.0742
      15    H8      20.129401   21.036909   22.473976 H          1 MOL1         0.0742
      16    C6      20.676507   19.530750   23.947883 C.3        1 MOL1        -0.1856
      17    H9      21.143619   18.536370   23.964737 H          1 MOL1         0.0742
      18    H10     19.654350   19.411151   24.330308 H          1 MOL1         0.0742
      19    C7      21.454324   20.478064   24.883474 C.3        1 MOL1        -0.2871
      20    H11     22.494959   20.590920   24.552275 H          1 MOL1         0.0754
      21    H12     21.465886   20.085592   25.908604 H          1 MOL1         0.0754
      22    H13     20.991829   21.473519   24.906730 H          1 MOL1         0.0754
@<TRIPOS>BOND
    1     1     2    1
    2     1     3    2
    3     1     4    1
    4     4     5    1
    5     4     6    1
    6     4     7    1
    7     7     8    1
    8     7     9    1
    9     7    10    1
   10    10    11    1
   11    10    12    1
   12    10    13    1
   13    13    14    1
   14    13    15    1
   15    13    16    1
   16    16    17    1
   17    16    18    1
   18    16    19    1
   19    19    20    1
   20    19    21    1
   21    19    22    1
@<TRIPOS>SUBSTRUCTURE
       1 MOL1            1 RESIDUE      1      MOL     
@<SCITEGIC>MOL_PROPERTY
VConf Rank
SciTegic.value.IntegerValue
797

@<SCITEGIC>MOL_PROPERTY
Conf_Id
SciTegic.value.IntegerValue
85

@<SCITEGIC>MOL_PROPERTY
Delta U+W
SciTegic.value.DoubleValue
0.707

@<SCITEGIC>MOL_PROPERTY
U+W
SciTegic.value.DoubleValue
-52.452

@<SCITEGIC>MOL_PROPERTY
Grad RMS
SciTegic.value.DoubleValue
0.000000

@<SCITEGIC>MOL_PROPERTY
U
SciTegic.value.DoubleValue
8.925

@<SCITEGIC>MOL_PROPERTY
W
SciTegic.value.DoubleValue
-61.378

@<SCITEGIC>MOL_PROPERTY
W(PB)
SciTegic.value.DoubleValue
-63.661

@<SCITEGIC>MOL_PROPERTY
W(SA)
SciTegic.value.DoubleValue
2.283

@<SCITEGIC>MOL_PROPERTY
Valence
SciTegic.value.DoubleValue
7.881

@<SCITEGIC>MOL_PROPERTY
Coulomb
SciTegic.value.DoubleValue
0.349

@<SCITEGIC>MOL_PROPERTY
VdW
SciTegic.value.DoubleValue
0.695

@<SCITEGIC>MOL_PROPERTY
VdW6
SciTegic.value.DoubleValue
-8.049

@<SCITEGIC>MOL_PROPERTY
VdW12
SciTegic.value.DoubleValue
8.743

@<SCITEGIC>MOL_PROPERTY
Bond
SciTegic.value.DoubleValue
0.156

@<SCITEGIC>MOL_PROPERTY
Angle
SciTegic.value.DoubleValue
2.660

@<SCITEGIC>MOL_PROPERTY
Pdih
SciTegic.value.DoubleValue
5.064

@<SCITEGIC>MOL_PROPERTY
Idih
SciTegic.value.DoubleValue
0.001

@<SCITEGIC>MOL_PROPERTY
Tether
SciTegic.value.DoubleValue
0.000

@<TRIPOS>MOLECULE
guest-s21_confgen4.mol2 : confsearch ligand conformer 798
          22          21           1
SMALL
USER_CHARGES
 
@<TRIPOS>ATOM
       1    C1      17.846561   21.307070   21.302448 C.2        1 MOL1         0.6145
       2    O1      17.636612   21.239968   20.107309 O.co2      1 MOL1        -0.6735
       3    O2      16.972129   21.472024   22.130175 O.co2      1 MOL1        -0.6735
       4    C2      19.288742   21.201922   21.790766 C.3        1 MOL1        -0.1985
       5    H1      19.446393   22.006048   22.519133 H          1 MOL1         0.0740
       6    H2      19.960418   21.401658   20.947076 H          1 MOL1         0.0740
       7    C3      19.638511   19.838596   22.442450 C.3        1 MOL1        -0.1882
       8    H3      20.634122   19.918200   22.896684 H          1 MOL1         0.0742
       9    H4      18.928997   19.629550   23.254957 H          1 MOL1         0.0742
      10    C4      19.632297   18.673798   21.425451 C.3        1 MOL1        -0.1880
      11    H5      20.404318   18.850104   20.664137 H          1 MOL1         0.0742
      12    H6      18.672032   18.665812   20.891906 H          1 MOL1         0.0742
      13    C5      19.842644   17.275371   22.058445 C.3        1 MOL1        -0.1880
      14    H7      19.022914   17.049983   22.754268 H          1 MOL1         0.0742
      15    H8      19.761842   16.533205   21.252512 H          1 MOL1         0.0742
      16    C6      21.210488   17.078742   22.758619 C.3        1 MOL1        -0.1856
      17    H9      21.969084   17.730158   22.303208 H          1 MOL1         0.0742
      18    H10     21.549074   16.048054   22.584433 H          1 MOL1         0.0742
      19    C7      21.151955   17.309791   24.285124 C.3        1 MOL1        -0.2871
      20    H11     20.833836   18.328945   24.532164 H          1 MOL1         0.0754
      21    H12     22.139666   17.148407   24.735902 H          1 MOL1         0.0754
      22    H13     20.449085   16.611941   24.758481 H          1 MOL1         0.0754
@<TRIPOS>BOND
    1     1     2    1
    2     1     3    2
    3     1     4    1
    4     4     5    1
    5     4     6    1
    6     4     7    1
    7     7     8    1
    8     7     9    1
    9     7    10    1
   10    10    11    1
   11    10    12    1
   12    10    13    1
   13    13    14    1
   14    13    15    1
   15    13    16    1
   16    16    17    1
   17    16    18    1
   18    16    19    1
   19    19    20    1
   20    19    21    1
   21    19    22    1
@<TRIPOS>SUBSTRUCTURE
       1 MOL1            1 RESIDUE      1      MOL     
@<SCITEGIC>MOL_PROPERTY
VConf Rank
SciTegic.value.IntegerValue
798

@<SCITEGIC>MOL_PROPERTY
Conf_Id
SciTegic.value.IntegerValue
82

@<SCITEGIC>MOL_PROPERTY
Delta U+W
SciTegic.value.DoubleValue
3.438

@<SCITEGIC>MOL_PROPERTY
U+W
SciTegic.value.DoubleValue
-49.721

@<SCITEGIC>MOL_PROPERTY
Grad RMS
SciTegic.value.DoubleValue
0.000000

@<SCITEGIC>MOL_PROPERTY
U
SciTegic.value.DoubleValue
11.773

@<SCITEGIC>MOL_PROPERTY
W
SciTegic.value.DoubleValue
-61.495

@<SCITEGIC>MOL_PROPERTY
W(PB)
SciTegic.value.DoubleValue
-63.749

@<SCITEGIC>MOL_PROPERTY
W(SA)
SciTegic.value.DoubleValue
2.254

@<SCITEGIC>MOL_PROPERTY
Valence
SciTegic.value.DoubleValue
10.419

@<SCITEGIC>MOL_PROPERTY
Coulomb
SciTegic.value.DoubleValue
0.565

@<SCITEGIC>MOL_PROPERTY
VdW
SciTegic.value.DoubleValue
0.789

@<SCITEGIC>MOL_PROPERTY
VdW6
SciTegic.value.DoubleValue
-8.847

@<SCITEGIC>MOL_PROPERTY
VdW12
SciTegic.value.DoubleValue
9.636

@<SCITEGIC>MOL_PROPERTY
Bond
SciTegic.value.DoubleValue
0.200

@<SCITEGIC>MOL_PROPERTY
Angle
SciTegic.value.DoubleValue
3.187

@<SCITEGIC>MOL_PROPERTY
Pdih
SciTegic.value.DoubleValue
7.032

@<SCITEGIC>MOL_PROPERTY
Idih
SciTegic.value.DoubleValue
0.001

@<SCITEGIC>MOL_PROPERTY
Tether
SciTegic.value.DoubleValue
0.000

@<TRIPOS>MOLECULE
guest-s21_confgen4.mol2 : confsearch ligand conformer 799
          22          21           1
SMALL
USER_CHARGES
 
@<TRIPOS>ATOM
       1    C1      19.951818   15.592226   21.968963 C.2        1 MOL1         0.6145
       2    O1      18.833067   15.172110   22.190035 O.co2      1 MOL1        -0.6735
       3    O2      20.622852   15.247903   21.016022 O.co2      1 MOL1        -0.6735
       4    C2      20.553977   16.588846   22.955650 C.3        1 MOL1        -0.1985
       5    H1      21.642400   16.601653   22.821381 H          1 MOL1         0.0740
       6    H2      20.363243   16.205164   23.964809 H          1 MOL1         0.0740
       7    C3      19.982386   18.025439   22.832465 C.3        1 MOL1        -0.1882
       8    H3      18.887781   17.991799   22.921823 H          1 MOL1         0.0742
       9    H4      20.356352   18.619463   23.675786 H          1 MOL1         0.0742
      10    C4      20.381403   18.713000   21.506144 C.3        1 MOL1        -0.1880
      11    H5      20.104813   18.062581   20.665137 H          1 MOL1         0.0742
      12    H6      21.473948   18.819435   21.464698 H          1 MOL1         0.0742
      13    C5      19.720056   20.096147   21.282418 C.3        1 MOL1        -0.1880
      14    H7      20.032329   20.454498   20.291996 H          1 MOL1         0.0742
      15    H8      18.628177   19.987112   21.229148 H          1 MOL1         0.0742
      16    C6      20.101508   21.174747   22.326934 C.3        1 MOL1        -0.1856
      17    H9      20.181971   22.144556   21.816745 H          1 MOL1         0.0742
      18    H10     21.096172   20.966232   22.744520 H          1 MOL1         0.0742
      19    C7      19.062828   21.317742   23.461713 C.3        1 MOL1        -0.2871
      20    H11     18.081075   21.598437   23.058652 H          1 MOL1         0.0754
      21    H12     19.371287   22.099153   24.168160 H          1 MOL1         0.0754
      22    H13     18.942524   20.385640   24.025288 H          1 MOL1         0.0754
@<TRIPOS>BOND
    1     1     2    1
    2     1     3    2
    3     1     4    1
    4     4     5    1
    5     4     6    1
    6     4     7    1
    7     7     8    1
    8     7     9    1
    9     7    10    1
   10    10    11    1
   11    10    12    1
   12    10    13    1
   13    13    14    1
   14    13    15    1
   15    13    16    1
   16    16    17    1
   17    16    18    1
   18    16    19    1
   19    19    20    1
   20    19    21    1
   21    19    22    1
@<TRIPOS>SUBSTRUCTURE
       1 MOL1            1 RESIDUE      1      MOL     
@<SCITEGIC>MOL_PROPERTY
VConf Rank
SciTegic.value.IntegerValue
799

@<SCITEGIC>MOL_PROPERTY
Conf_Id
SciTegic.value.IntegerValue
94

@<SCITEGIC>MOL_PROPERTY
Delta U+W
SciTegic.value.DoubleValue
3.471

@<SCITEGIC>MOL_PROPERTY
U+W
SciTegic.value.DoubleValue
-49.688

@<SCITEGIC>MOL_PROPERTY
Grad RMS
SciTegic.value.DoubleValue
0.000000

@<SCITEGIC>MOL_PROPERTY
U
SciTegic.value.DoubleValue
11.773

@<SCITEGIC>MOL_PROPERTY
W
SciTegic.value.DoubleValue
-61.461

@<SCITEGIC>MOL_PROPERTY
W(PB)
SciTegic.value.DoubleValue
-63.710

@<SCITEGIC>MOL_PROPERTY
W(SA)
SciTegic.value.DoubleValue
2.248

@<SCITEGIC>MOL_PROPERTY
Valence
SciTegic.value.DoubleValue
10.419

@<SCITEGIC>MOL_PROPERTY
Coulomb
SciTegic.value.DoubleValue
0.566

@<SCITEGIC>MOL_PROPERTY
VdW
SciTegic.value.DoubleValue
0.789

@<SCITEGIC>MOL_PROPERTY
VdW6
SciTegic.value.DoubleValue
-8.847

@<SCITEGIC>MOL_PROPERTY
VdW12
SciTegic.value.DoubleValue
9.636

@<SCITEGIC>MOL_PROPERTY
Bond
SciTegic.value.DoubleValue
0.200

@<SCITEGIC>MOL_PROPERTY
Angle
SciTegic.value.DoubleValue
3.187

@<SCITEGIC>MOL_PROPERTY
Pdih
SciTegic.value.DoubleValue
7.032

@<SCITEGIC>MOL_PROPERTY
Idih
SciTegic.value.DoubleValue
0.001

@<SCITEGIC>MOL_PROPERTY
Tether
SciTegic.value.DoubleValue
0.000

@<TRIPOS>MOLECULE
guest-s21_confgen4.mol2 : confsearch ligand conformer 800
          22          21           1
SMALL
USER_CHARGES
 
@<TRIPOS>ATOM
       1    C1      22.897988   17.949907   22.889254 C.2        1 MOL1         0.6145
       2    O1      23.756008   17.541835   22.131641 O.co2      1 MOL1        -0.6735
       3    O2      22.789526   17.583270   24.042679 O.co2      1 MOL1        -0.6735
       4    C2      21.890782   18.963059   22.357284 C.3        1 MOL1        -0.1985
       5    H1      22.396441   19.587103   21.610885 H          1 MOL1         0.0740
       6    H2      21.604329   19.617002   23.188752 H          1 MOL1         0.0740
       7    C3      20.638021   18.293920   21.734952 C.3        1 MOL1        -0.1882
       8    H3      20.964033   17.584468   20.961976 H          1 MOL1         0.0742
       9    H4      20.123312   17.695654   22.498482 H          1 MOL1         0.0742
      10    C4      19.651861   19.302992   21.094892 C.3        1 MOL1        -0.1880
      11    H5      18.824713   18.747356   20.633840 H          1 MOL1         0.0742
      12    H6      20.159575   19.819308   20.268944 H          1 MOL1         0.0742
      13    C5      19.075253   20.368345   22.064280 C.3        1 MOL1        -0.1880
      14    H7      19.884261   21.030177   22.400043 H          1 MOL1         0.0742
      15    H8      18.380307   21.009882   21.505688 H          1 MOL1         0.0742
      16    C6      18.342521   19.802137   23.305425 C.3        1 MOL1        -0.1856
      17    H9      18.004098   20.642961   23.926225 H          1 MOL1         0.0742
      18    H10     19.041353   19.227177   23.927566 H          1 MOL1         0.0742
      19    C7      17.122372   18.926750   22.946624 C.3        1 MOL1        -0.2871
      20    H11     16.417463   19.477405   22.310358 H          1 MOL1         0.0754
      21    H12     16.589422   18.619229   23.855546 H          1 MOL1         0.0754
      22    H13     17.427523   18.016429   22.415443 H          1 MOL1         0.0754
@<TRIPOS>BOND
    1     1     2    1
    2     1     3    2
    3     1     4    1
    4     4     5    1
    5     4     6    1
    6     4     7    1
    7     7     8    1
    8     7     9    1
    9     7    10    1
   10    10    11    1
   11    10    12    1
   12    10    13    1
   13    13    14    1
   14    13    15    1
   15    13    16    1
   16    16    17    1
   17    16    18    1
   18    16    19    1
   19    19    20    1
   20    19    21    1
   21    19    22    1
@<TRIPOS>SUBSTRUCTURE
       1 MOL1            1 RESIDUE      1      MOL     
@<SCITEGIC>MOL_PROPERTY
VConf Rank
SciTegic.value.IntegerValue
800

@<SCITEGIC>MOL_PROPERTY
Conf_Id
SciTegic.value.IntegerValue
56

@<SCITEGIC>MOL_PROPERTY
Delta U+W
SciTegic.value.DoubleValue
0.853

@<SCITEGIC>MOL_PROPERTY
U+W
SciTegic.value.DoubleValue
-52.307

@<SCITEGIC>MOL_PROPERTY
Grad RMS
SciTegic.value.DoubleValue
0.000000

@<SCITEGIC>MOL_PROPERTY
U
SciTegic.value.DoubleValue
8.874

@<SCITEGIC>MOL_PROPERTY
W
SciTegic.value.DoubleValue
-61.181

@<SCITEGIC>MOL_PROPERTY
W(PB)
SciTegic.value.DoubleValue
-63.413

@<SCITEGIC>MOL_PROPERTY
W(SA)
SciTegic.value.DoubleValue
2.232

@<SCITEGIC>MOL_PROPERTY
Valence
SciTegic.value.DoubleValue
8.479

@<SCITEGIC>MOL_PROPERTY
Coulomb
SciTegic.value.DoubleValue
-0.357

@<SCITEGIC>MOL_PROPERTY
VdW
SciTegic.value.DoubleValue
0.753

@<SCITEGIC>MOL_PROPERTY
VdW6
SciTegic.value.DoubleValue
-9.081

@<SCITEGIC>MOL_PROPERTY
VdW12
SciTegic.value.DoubleValue
9.833

@<SCITEGIC>MOL_PROPERTY
Bond
SciTegic.value.DoubleValue
0.221

@<SCITEGIC>MOL_PROPERTY
Angle
SciTegic.value.DoubleValue
3.208

@<SCITEGIC>MOL_PROPERTY
Pdih
SciTegic.value.DoubleValue
5.050

@<SCITEGIC>MOL_PROPERTY
Idih
SciTegic.value.DoubleValue
0.000

@<SCITEGIC>MOL_PROPERTY
Tether
SciTegic.value.DoubleValue
0.000

@<TRIPOS>MOLECULE
guest-s21_confgen4.mol2 : confsearch ligand conformer 801
          22          21           1
SMALL
USER_CHARGES
 
@<TRIPOS>ATOM
       1    C1      23.022728   19.383989   24.610113 C.2        1 MOL1         0.6145
       2    O1      23.449992   20.338920   23.990472 O.co2      1 MOL1        -0.6735
       3    O2      23.574486   18.929975   25.592638 O.co2      1 MOL1        -0.6735
       4    C2      21.732091   18.700295   24.155863 C.3        1 MOL1        -0.1985
       5    H1      21.032102   18.729910   24.999135 H          1 MOL1         0.0740
       6    H2      21.968127   17.645641   23.971581 H          1 MOL1         0.0740
       7    C3      21.063713   19.315676   22.897695 C.3        1 MOL1        -0.1882
       8    H3      20.835569   20.373815   23.086851 H          1 MOL1         0.0742
       9    H4      21.772362   19.288400   22.058314 H          1 MOL1         0.0742
      10    C4      19.770218   18.566569   22.510110 C.3        1 MOL1        -0.1880
      11    H5      19.063372   18.595182   23.350753 H          1 MOL1         0.0742
      12    H6      20.000776   17.508999   22.321647 H          1 MOL1         0.0742
      13    C5      19.107063   19.180240   21.258335 C.3        1 MOL1        -0.1880
      14    H7      18.876361   20.237865   21.446301 H          1 MOL1         0.0742
      15    H8      19.813551   19.151815   20.417386 H          1 MOL1         0.0742
      16    C6      17.814363   18.432175   20.870485 C.3        1 MOL1        -0.1856
      17    H9      17.104319   18.460267   21.708652 H          1 MOL1         0.0742
      18    H10     18.041552   17.374118   20.679757 H          1 MOL1         0.0742
      19    C7      17.155266   19.047999   19.620010 C.3        1 MOL1        -0.2871
      20    H11     16.888523   20.098745   19.793759 H          1 MOL1         0.0754
      21    H12     16.238130   18.504283   19.358615 H          1 MOL1         0.0754
      22    H13     17.832743   19.004396   18.757148 H          1 MOL1         0.0754
@<TRIPOS>BOND
    1     1     2    1
    2     1     3    2
    3     1     4    1
    4     4     5    1
    5     4     6    1
    6     4     7    1
    7     7     8    1
    8     7     9    1
    9     7    10    1
   10    10    11    1
   11    10    12    1
   12    10    13    1
   13    13    14    1
   14    13    15    1
   15    13    16    1
   16    16    17    1
   17    16    18    1
   18    16    19    1
   19    19    20    1
   20    19    21    1
   21    19    22    1
@<TRIPOS>SUBSTRUCTURE
       1 MOL1            1 RESIDUE      1      MOL     
@<SCITEGIC>MOL_PROPERTY
VConf Rank
SciTegic.value.IntegerValue
801

@<SCITEGIC>MOL_PROPERTY
Conf_Id
SciTegic.value.IntegerValue
0

@<SCITEGIC>MOL_PROPERTY
Delta U+W
SciTegic.value.DoubleValue
0.000

@<SCITEGIC>MOL_PROPERTY
U+W
SciTegic.value.DoubleValue
-53.159

@<SCITEGIC>MOL_PROPERTY
Grad RMS
SciTegic.value.DoubleValue
0.000000

@<SCITEGIC>MOL_PROPERTY
U
SciTegic.value.DoubleValue
6.763

@<SCITEGIC>MOL_PROPERTY
W
SciTegic.value.DoubleValue
-59.922

@<SCITEGIC>MOL_PROPERTY
W(PB)
SciTegic.value.DoubleValue
-62.256

@<SCITEGIC>MOL_PROPERTY
W(SA)
SciTegic.value.DoubleValue
2.334

@<SCITEGIC>MOL_PROPERTY
Valence
SciTegic.value.DoubleValue
7.600

@<SCITEGIC>MOL_PROPERTY
Coulomb
SciTegic.value.DoubleValue
-2.139

@<SCITEGIC>MOL_PROPERTY
VdW
SciTegic.value.DoubleValue
1.302

@<SCITEGIC>MOL_PROPERTY
VdW6
SciTegic.value.DoubleValue
-6.786

@<SCITEGIC>MOL_PROPERTY
VdW12
SciTegic.value.DoubleValue
8.088

@<SCITEGIC>MOL_PROPERTY
Bond
SciTegic.value.DoubleValue
0.134

@<SCITEGIC>MOL_PROPERTY
Angle
SciTegic.value.DoubleValue
2.720

@<SCITEGIC>MOL_PROPERTY
Pdih
SciTegic.value.DoubleValue
4.746

@<SCITEGIC>MOL_PROPERTY
Idih
SciTegic.value.DoubleValue
0.000

@<SCITEGIC>MOL_PROPERTY
Tether
SciTegic.value.DoubleValue
0.000

@<TRIPOS>MOLECULE
guest-s21_confgen4.mol2 : confsearch ligand conformer 802
          22          21           1
SMALL
USER_CHARGES
 
@<TRIPOS>ATOM
       1    C1      23.294125   20.702830   21.169819 C.2        1 MOL1         0.6145
       2    O1      23.249546   21.914469   21.089972 O.co2      1 MOL1        -0.6735
       3    O2      24.014725   20.008909   20.480152 O.co2      1 MOL1        -0.6735
       4    C2      22.378883   20.013483   22.175475 C.3        1 MOL1        -0.1985
       5    H1      22.255625   20.680593   23.037122 H          1 MOL1         0.0740
       6    H2      22.886474   19.110205   22.534784 H          1 MOL1         0.0740
       7    C3      20.996770   19.648813   21.579798 C.3        1 MOL1        -0.1882
       8    H3      20.507403   20.561788   21.212962 H          1 MOL1         0.0742
       9    H4      21.138232   18.991448   20.710641 H          1 MOL1         0.0742
      10    C4      20.089398   18.952535   22.616984 C.3        1 MOL1        -0.1880
      11    H5      19.951033   19.611776   23.484987 H          1 MOL1         0.0742
      12    H6      20.582047   18.041046   22.982573 H          1 MOL1         0.0742
      13    C5      18.712427   18.590194   22.020366 C.3        1 MOL1        -0.1880
      14    H7      18.219454   19.501431   21.654648 H          1 MOL1         0.0742
      15    H8      18.850359   17.930961   21.152315 H          1 MOL1         0.0742
      16    C6      17.804980   17.894272   23.056369 C.3        1 MOL1        -0.1856
      17    H9      17.663013   18.551561   23.925445 H          1 MOL1         0.0742
      18    H10     18.293923   16.981091   23.423129 H          1 MOL1         0.0742
      19    C7      16.430927   17.534070   22.456725 C.3        1 MOL1        -0.2871
      20    H11     16.541267   16.851340   21.604016 H          1 MOL1         0.0754
      21    H12     15.905673   18.433667   22.109967 H          1 MOL1         0.0754
      22    H13     15.798991   17.040498   23.206482 H          1 MOL1         0.0754
@<TRIPOS>BOND
    1     1     2    1
    2     1     3    2
    3     1     4    1
    4     4     5    1
    5     4     6    1
    6     4     7    1
    7     7     8    1
    8     7     9    1
    9     7    10    1
   10    10    11    1
   11    10    12    1
   12    10    13    1
   13    13    14    1
   14    13    15    1
   15    13    16    1
   16    16    17    1
   17    16    18    1
   18    16    19    1
   19    19    20    1
   20    19    21    1
   21    19    22    1
@<TRIPOS>SUBSTRUCTURE
       1 MOL1            1 RESIDUE      1      MOL     
@<SCITEGIC>MOL_PROPERTY
VConf Rank
SciTegic.value.IntegerValue
802

@<SCITEGIC>MOL_PROPERTY
Conf_Id
SciTegic.value.IntegerValue
10

@<SCITEGIC>MOL_PROPERTY
Delta U+W
SciTegic.value.DoubleValue
-1.291

@<SCITEGIC>MOL_PROPERTY
U+W
SciTegic.value.DoubleValue
-54.451

@<SCITEGIC>MOL_PROPERTY
Grad RMS
SciTegic.value.DoubleValue
0.000000

@<SCITEGIC>MOL_PROPERTY
U
SciTegic.value.DoubleValue
5.779

@<SCITEGIC>MOL_PROPERTY
W
SciTegic.value.DoubleValue
-60.230

@<SCITEGIC>MOL_PROPERTY
W(PB)
SciTegic.value.DoubleValue
-62.557

@<SCITEGIC>MOL_PROPERTY
W(SA)
SciTegic.value.DoubleValue
2.328

@<SCITEGIC>MOL_PROPERTY
Valence
SciTegic.value.DoubleValue
7.101

@<SCITEGIC>MOL_PROPERTY
Coulomb
SciTegic.value.DoubleValue
-2.079

@<SCITEGIC>MOL_PROPERTY
VdW
SciTegic.value.DoubleValue
0.757

@<SCITEGIC>MOL_PROPERTY
VdW6
SciTegic.value.DoubleValue
-6.496

@<SCITEGIC>MOL_PROPERTY
VdW12
SciTegic.value.DoubleValue
7.253

@<SCITEGIC>MOL_PROPERTY
Bond
SciTegic.value.DoubleValue
0.100

@<SCITEGIC>MOL_PROPERTY
Angle
SciTegic.value.DoubleValue
2.262

@<SCITEGIC>MOL_PROPERTY
Pdih
SciTegic.value.DoubleValue
4.738

@<SCITEGIC>MOL_PROPERTY
Idih
SciTegic.value.DoubleValue
0.001

@<SCITEGIC>MOL_PROPERTY
Tether
SciTegic.value.DoubleValue
0.000

@<TRIPOS>MOLECULE
guest-s21_confgen4.mol2 : confsearch ligand conformer 803
          22          21           1
SMALL
USER_CHARGES
 
@<TRIPOS>ATOM
       1    C1      19.906040   16.508744   19.175040 C.2        1 MOL1         0.6145
       2    O1      18.813563   16.025912   18.951835 O.co2      1 MOL1        -0.6735
       3    O2      20.760091   16.663163   18.324624 O.co2      1 MOL1        -0.6735
       4    C2      20.214567   16.965411   20.596474 C.3        1 MOL1        -0.1985
       5    H1      21.287900   16.826720   20.773576 H          1 MOL1         0.0740
       6    H2      19.683235   16.302724   21.290153 H          1 MOL1         0.0740
       7    C3      19.816433   18.439490   20.854795 C.3        1 MOL1        -0.1882
       8    H3      20.346566   19.088147   20.143658 H          1 MOL1         0.0742
       9    H4      18.742003   18.564583   20.661137 H          1 MOL1         0.0742
      10    C4      20.138755   18.877220   22.300080 C.3        1 MOL1        -0.1880
      11    H5      21.213620   18.753082   22.490109 H          1 MOL1         0.0742
      12    H6      19.610233   18.218775   23.001707 H          1 MOL1         0.0742
      13    C5      19.736102   20.348168   22.553934 C.3        1 MOL1        -0.1880
      14    H7      20.217566   20.985760   21.799877 H          1 MOL1         0.0742
      15    H8      18.652697   20.464911   22.414150 H          1 MOL1         0.0742
      16    C6      20.134597   20.861267   23.957229 C.3        1 MOL1        -0.1856
      17    H9      19.921663   21.937765   24.012418 H          1 MOL1         0.0742
      18    H10     21.218774   20.751905   24.098332 H          1 MOL1         0.0742
      19    C7      19.386867   20.147487   25.104237 C.3        1 MOL1        -0.2871
      20    H11     19.637160   20.606343   26.069496 H          1 MOL1         0.0754
      21    H12     19.659189   19.086196   25.160846 H          1 MOL1         0.0754
      22    H13     18.299800   20.217871   24.968347 H          1 MOL1         0.0754
@<TRIPOS>BOND
    1     1     2    1
    2     1     3    2
    3     1     4    1
    4     4     5    1
    5     4     6    1
    6     4     7    1
    7     7     8    1
    8     7     9    1
    9     7    10    1
   10    10    11    1
   11    10    12    1
   12    10    13    1
   13    13    14    1
   14    13    15    1
   15    13    16    1
   16    16    17    1
   17    16    18    1
   18    16    19    1
   19    19    20    1
   20    19    21    1
   21    19    22    1
@<TRIPOS>SUBSTRUCTURE
       1 MOL1            1 RESIDUE      1      MOL     
@<SCITEGIC>MOL_PROPERTY
VConf Rank
SciTegic.value.IntegerValue
803

@<SCITEGIC>MOL_PROPERTY
Conf_Id
SciTegic.value.IntegerValue
37

@<SCITEGIC>MOL_PROPERTY
Delta U+W
SciTegic.value.DoubleValue
-0.345

@<SCITEGIC>MOL_PROPERTY
U+W
SciTegic.value.DoubleValue
-53.504

@<SCITEGIC>MOL_PROPERTY
Grad RMS
SciTegic.value.DoubleValue
0.000000

@<SCITEGIC>MOL_PROPERTY
U
SciTegic.value.DoubleValue
6.751

@<SCITEGIC>MOL_PROPERTY
W
SciTegic.value.DoubleValue
-60.255

@<SCITEGIC>MOL_PROPERTY
W(PB)
SciTegic.value.DoubleValue
-62.592

@<SCITEGIC>MOL_PROPERTY
W(SA)
SciTegic.value.DoubleValue
2.336

@<SCITEGIC>MOL_PROPERTY
Valence
SciTegic.value.DoubleValue
7.602

@<SCITEGIC>MOL_PROPERTY
Coulomb
SciTegic.value.DoubleValue
-1.744

@<SCITEGIC>MOL_PROPERTY
VdW
SciTegic.value.DoubleValue
0.894

@<SCITEGIC>MOL_PROPERTY
VdW6
SciTegic.value.DoubleValue
-7.110

@<SCITEGIC>MOL_PROPERTY
VdW12
SciTegic.value.DoubleValue
8.004

@<SCITEGIC>MOL_PROPERTY
Bond
SciTegic.value.DoubleValue
0.131

@<SCITEGIC>MOL_PROPERTY
Angle
SciTegic.value.DoubleValue
2.489

@<SCITEGIC>MOL_PROPERTY
Pdih
SciTegic.value.DoubleValue
4.982

@<SCITEGIC>MOL_PROPERTY
Idih
SciTegic.value.DoubleValue
0.001

@<SCITEGIC>MOL_PROPERTY
Tether
SciTegic.value.DoubleValue
0.000

@<TRIPOS>MOLECULE
guest-s21_confgen4.mol2 : confsearch ligand conformer 804
          22          21           1
SMALL
USER_CHARGES
 
@<TRIPOS>ATOM
       1    C1      21.895489   18.899106   18.936672 C.2        1 MOL1         0.6145
       2    O1      22.672236   17.965184   18.906559 O.co2      1 MOL1        -0.6735
       3    O2      22.071721   19.940667   18.336213 O.co2      1 MOL1        -0.6735
       4    C2      20.640984   18.764852   19.792478 C.3        1 MOL1        -0.1985
       5    H1      20.334261   17.711991   19.784663 H          1 MOL1         0.0740
       6    H2      19.838945   19.339743   19.314064 H          1 MOL1         0.0740
       7    C3      20.850793   19.249616   21.248205 C.3        1 MOL1        -0.1882
       8    H3      21.664850   18.672996   21.709041 H          1 MOL1         0.0742
       9    H4      21.170548   20.300881   21.237701 H          1 MOL1         0.0742
      10    C4      19.566840   19.103551   22.093474 C.3        1 MOL1        -0.1880
      11    H5      19.252397   18.051749   22.091251 H          1 MOL1         0.0742
      12    H6      18.755543   19.682707   21.631705 H          1 MOL1         0.0742
      13    C5      19.782593   19.585138   23.546673 C.3        1 MOL1        -0.1880
      14    H7      20.558404   18.974041   24.027938 H          1 MOL1         0.0742
      15    H8      20.164362   20.615124   23.528915 H          1 MOL1         0.0742
      16    C6      18.494918   19.553718   24.402369 C.3        1 MOL1        -0.1856
      17    H9      17.718511   20.169228   23.927343 H          1 MOL1         0.0742
      18    H10     18.706900   20.018261   25.375251 H          1 MOL1         0.0742
      19    C7      17.953655   18.127316   24.640324 C.3        1 MOL1        -0.2871
      20    H11     18.723089   17.484596   25.087557 H          1 MOL1         0.0754
      21    H12     17.619323   17.664087   23.703657 H          1 MOL1         0.0754
      22    H13     17.094864   18.151798   25.323551 H          1 MOL1         0.0754
@<TRIPOS>BOND
    1     1     2    1
    2     1     3    2
    3     1     4    1
    4     4     5    1
    5     4     6    1
    6     4     7    1
    7     7     8    1
    8     7     9    1
    9     7    10    1
   10    10    11    1
   11    10    12    1
   12    10    13    1
   13    13    14    1
   14    13    15    1
   15    13    16    1
   16    16    17    1
   17    16    18    1
   18    16    19    1
   19    19    20    1
   20    19    21    1
   21    19    22    1
@<TRIPOS>SUBSTRUCTURE
       1 MOL1            1 RESIDUE      1      MOL     
@<SCITEGIC>MOL_PROPERTY
VConf Rank
SciTegic.value.IntegerValue
804

@<SCITEGIC>MOL_PROPERTY
Conf_Id
SciTegic.value.IntegerValue
38

@<SCITEGIC>MOL_PROPERTY
Delta U+W
SciTegic.value.DoubleValue
-0.439

@<SCITEGIC>MOL_PROPERTY
U+W
SciTegic.value.DoubleValue
-53.598

@<SCITEGIC>MOL_PROPERTY
Grad RMS
SciTegic.value.DoubleValue
0.000000

@<SCITEGIC>MOL_PROPERTY
U
SciTegic.value.DoubleValue
6.751

@<SCITEGIC>MOL_PROPERTY
W
SciTegic.value.DoubleValue
-60.350

@<SCITEGIC>MOL_PROPERTY
W(PB)
SciTegic.value.DoubleValue
-62.659

@<SCITEGIC>MOL_PROPERTY
W(SA)
SciTegic.value.DoubleValue
2.309

@<SCITEGIC>MOL_PROPERTY
Valence
SciTegic.value.DoubleValue
7.602

@<SCITEGIC>MOL_PROPERTY
Coulomb
SciTegic.value.DoubleValue
-1.744

@<SCITEGIC>MOL_PROPERTY
VdW
SciTegic.value.DoubleValue
0.893

@<SCITEGIC>MOL_PROPERTY
VdW6
SciTegic.value.DoubleValue
-7.110

@<SCITEGIC>MOL_PROPERTY
VdW12
SciTegic.value.DoubleValue
8.004

@<SCITEGIC>MOL_PROPERTY
Bond
SciTegic.value.DoubleValue
0.131

@<SCITEGIC>MOL_PROPERTY
Angle
SciTegic.value.DoubleValue
2.489

@<SCITEGIC>MOL_PROPERTY
Pdih
SciTegic.value.DoubleValue
4.981

@<SCITEGIC>MOL_PROPERTY
Idih
SciTegic.value.DoubleValue
0.001

@<SCITEGIC>MOL_PROPERTY
Tether
SciTegic.value.DoubleValue
0.000

@<TRIPOS>MOLECULE
guest-s21_confgen4.mol2 : confsearch ligand conformer 805
          22          21           1
SMALL
USER_CHARGES
 
@<TRIPOS>ATOM
       1    C1      17.697604   17.470363   24.893422 C.2        1 MOL1         0.6145
       2    O1      18.136621   16.918271   25.882877 O.co2      1 MOL1        -0.6735
       3    O2      16.576889   17.285824   24.461595 O.co2      1 MOL1        -0.6735
       4    C2      18.611131   18.430219   24.139477 C.3        1 MOL1        -0.1985
       5    H1      19.279549   18.905645   24.867216 H          1 MOL1         0.0740
       6    H2      17.983098   19.218836   23.710386 H          1 MOL1         0.0740
       7    C3      19.438994   17.725572   23.033255 C.3        1 MOL1        -0.1882
       8    H3      19.979049   16.881082   23.483393 H          1 MOL1         0.0742
       9    H4      18.760276   17.295089   22.284042 H          1 MOL1         0.0742
      10    C4      20.464178   18.653584   22.338623 C.3        1 MOL1        -0.1880
      11    H5      21.090538   18.036158   21.682280 H          1 MOL1         0.0742
      12    H6      21.135659   19.088727   23.091239 H          1 MOL1         0.0742
      13    C5      19.807328   19.783662   21.508266 C.3        1 MOL1        -0.1880
      14    H7      19.134509   19.348427   20.756876 H          1 MOL1         0.0742
      15    H8      19.183062   20.403720   22.163933 H          1 MOL1         0.0742
      16    C6      20.832307   20.708245   20.810640 C.3        1 MOL1        -0.1856
      17    H9      21.514616   21.136709   21.557745 H          1 MOL1         0.0742
      18    H10     20.293665   21.554191   20.361769 H          1 MOL1         0.0742
      19    C7      21.647492   19.999566   19.707055 C.3        1 MOL1        -0.2871
      20    H11     22.298388   19.221718   20.125040 H          1 MOL1         0.0754
      21    H12     22.287600   20.719695   19.181133 H          1 MOL1         0.0754
      22    H13     20.984405   19.533534   18.966613 H          1 MOL1         0.0754
@<TRIPOS>BOND
    1     1     2    1
    2     1     3    2
    3     1     4    1
    4     4     5    1
    5     4     6    1
    6     4     7    1
    7     7     8    1
    8     7     9    1
    9     7    10    1
   10    10    11    1
   11    10    12    1
   12    10    13    1
   13    13    14    1
   14    13    15    1
   15    13    16    1
   16    16    17    1
   17    16    18    1
   18    16    19    1
   19    19    20    1
   20    19    21    1
   21    19    22    1
@<TRIPOS>SUBSTRUCTURE
       1 MOL1            1 RESIDUE      1      MOL     
@<SCITEGIC>MOL_PROPERTY
VConf Rank
SciTegic.value.IntegerValue
805

@<SCITEGIC>MOL_PROPERTY
Conf_Id
SciTegic.value.IntegerValue
60

@<SCITEGIC>MOL_PROPERTY
Delta U+W
SciTegic.value.DoubleValue
0.386

@<SCITEGIC>MOL_PROPERTY
U+W
SciTegic.value.DoubleValue
-52.773

@<SCITEGIC>MOL_PROPERTY
Grad RMS
SciTegic.value.DoubleValue
0.000000

@<SCITEGIC>MOL_PROPERTY
U
SciTegic.value.DoubleValue
7.689

@<SCITEGIC>MOL_PROPERTY
W
SciTegic.value.DoubleValue
-60.463

@<SCITEGIC>MOL_PROPERTY
W(PB)
SciTegic.value.DoubleValue
-62.772

@<SCITEGIC>MOL_PROPERTY
W(SA)
SciTegic.value.DoubleValue
2.309

@<SCITEGIC>MOL_PROPERTY
Valence
SciTegic.value.DoubleValue
8.197

@<SCITEGIC>MOL_PROPERTY
Coulomb
SciTegic.value.DoubleValue
-1.561

@<SCITEGIC>MOL_PROPERTY
VdW
SciTegic.value.DoubleValue
1.053

@<SCITEGIC>MOL_PROPERTY
VdW6
SciTegic.value.DoubleValue
-7.737

@<SCITEGIC>MOL_PROPERTY
VdW12
SciTegic.value.DoubleValue
8.790

@<SCITEGIC>MOL_PROPERTY
Bond
SciTegic.value.DoubleValue
0.181

@<SCITEGIC>MOL_PROPERTY
Angle
SciTegic.value.DoubleValue
2.780

@<SCITEGIC>MOL_PROPERTY
Pdih
SciTegic.value.DoubleValue
5.235

@<SCITEGIC>MOL_PROPERTY
Idih
SciTegic.value.DoubleValue
0.001

@<SCITEGIC>MOL_PROPERTY
Tether
SciTegic.value.DoubleValue
0.000

@<TRIPOS>MOLECULE
guest-s21_confgen4.mol2 : confsearch ligand conformer 806
          22          21           1
SMALL
USER_CHARGES
 
@<TRIPOS>ATOM
       1    C1      22.565033   16.384314   21.662425 C.2        1 MOL1         0.6145
       2    O1      23.302669   16.753381   20.770115 O.co2      1 MOL1        -0.6735
       3    O2      22.498418   15.233739   22.047526 O.co2      1 MOL1        -0.6735
       4    C2      21.656663   17.417299   22.319763 C.3        1 MOL1        -0.1985
       5    H1      22.189675   18.374560   22.322935 H          1 MOL1         0.0740
       6    H2      21.508578   17.123219   23.365708 H          1 MOL1         0.0740
       7    C3      20.287770   17.554104   21.603501 C.3        1 MOL1        -0.1882
       8    H3      20.445459   17.896302   20.571352 H          1 MOL1         0.0742
       9    H4      19.827695   16.558721   21.532864 H          1 MOL1         0.0742
      10    C4      19.301666   18.503926   22.324719 C.3        1 MOL1        -0.1880
      11    H5      19.152653   18.163739   23.358516 H          1 MOL1         0.0742
      12    H6      18.327082   18.423034   21.826752 H          1 MOL1         0.0742
      13    C5      19.759136   19.983362   22.322023 C.3        1 MOL1        -0.1880
      14    H7      20.732148   20.066187   22.822489 H          1 MOL1         0.0742
      15    H8      19.909938   20.322847   21.288238 H          1 MOL1         0.0742
      16    C6      18.771028   20.932936   23.039007 C.3        1 MOL1        -0.1856
      17    H9      19.230842   21.928152   23.112237 H          1 MOL1         0.0742
      18    H10     18.608555   20.590072   24.070191 H          1 MOL1         0.0742
      19    C7      17.413570   21.067528   22.315234 C.3        1 MOL1        -0.2871
      20    H11     17.553816   21.376303   21.271149 H          1 MOL1         0.0754
      21    H12     16.788831   21.822646   22.809619 H          1 MOL1         0.0754
      22    H13     16.858227   20.121510   22.323472 H          1 MOL1         0.0754
@<TRIPOS>BOND
    1     1     2    1
    2     1     3    2
    3     1     4    1
    4     4     5    1
    5     4     6    1
    6     4     7    1
    7     7     8    1
    8     7     9    1
    9     7    10    1
   10    10    11    1
   11    10    12    1
   12    10    13    1
   13    13    14    1
   14    13    15    1
   15    13    16    1
   16    16    17    1
   17    16    18    1
   18    16    19    1
   19    19    20    1
   20    19    21    1
   21    19    22    1
@<TRIPOS>SUBSTRUCTURE
       1 MOL1            1 RESIDUE      1      MOL     
@<SCITEGIC>MOL_PROPERTY
VConf Rank
SciTegic.value.IntegerValue
806

@<SCITEGIC>MOL_PROPERTY
Conf_Id
SciTegic.value.IntegerValue
28

@<SCITEGIC>MOL_PROPERTY
Delta U+W
SciTegic.value.DoubleValue
0.351

@<SCITEGIC>MOL_PROPERTY
U+W
SciTegic.value.DoubleValue
-52.808

@<SCITEGIC>MOL_PROPERTY
Grad RMS
SciTegic.value.DoubleValue
0.000000

@<SCITEGIC>MOL_PROPERTY
U
SciTegic.value.DoubleValue
7.689

@<SCITEGIC>MOL_PROPERTY
W
SciTegic.value.DoubleValue
-60.498

@<SCITEGIC>MOL_PROPERTY
W(PB)
SciTegic.value.DoubleValue
-62.768

@<SCITEGIC>MOL_PROPERTY
W(SA)
SciTegic.value.DoubleValue
2.270

@<SCITEGIC>MOL_PROPERTY
Valence
SciTegic.value.DoubleValue
8.197

@<SCITEGIC>MOL_PROPERTY
Coulomb
SciTegic.value.DoubleValue
-1.561

@<SCITEGIC>MOL_PROPERTY
VdW
SciTegic.value.DoubleValue
1.053

@<SCITEGIC>MOL_PROPERTY
VdW6
SciTegic.value.DoubleValue
-7.737

@<SCITEGIC>MOL_PROPERTY
VdW12
SciTegic.value.DoubleValue
8.791

@<SCITEGIC>MOL_PROPERTY
Bond
SciTegic.value.DoubleValue
0.181

@<SCITEGIC>MOL_PROPERTY
Angle
SciTegic.value.DoubleValue
2.780

@<SCITEGIC>MOL_PROPERTY
Pdih
SciTegic.value.DoubleValue
5.235

@<SCITEGIC>MOL_PROPERTY
Idih
SciTegic.value.DoubleValue
0.001

@<SCITEGIC>MOL_PROPERTY
Tether
SciTegic.value.DoubleValue
0.000

@<TRIPOS>MOLECULE
guest-s21_confgen4.mol2 : confsearch ligand conformer 807
          22          21           1
SMALL
USER_CHARGES
 
@<TRIPOS>ATOM
       1    C1      17.603355   18.959730   25.201750 C.2        1 MOL1         0.6145
       2    O1      17.201012   20.049111   25.559300 O.co2      1 MOL1        -0.6735
       3    O2      16.900797   17.970363   25.138352 O.co2      1 MOL1        -0.6735
       4    C2      19.065944   18.831728   24.790935 C.3        1 MOL1        -0.1985
       5    H1      19.404720   17.820715   25.047320 H          1 MOL1         0.0740
       6    H2      19.652267   19.533541   25.396162 H          1 MOL1         0.0740
       7    C3      19.293553   19.104902   23.283667 C.3        1 MOL1        -0.1882
       8    H3      18.681732   18.404469   22.700113 H          1 MOL1         0.0742
       9    H4      18.941322   20.117085   23.041335 H          1 MOL1         0.0742
      10    C4      20.783291   18.963675   22.894056 C.3        1 MOL1        -0.1880
      11    H5      21.121340   17.936362   23.087290 H          1 MOL1         0.0742
      12    H6      21.384942   19.615906   23.541800 H          1 MOL1         0.0742
      13    C5      21.072835   19.335418   21.420444 C.3        1 MOL1        -0.1880
      14    H7      20.738630   20.364083   21.227860 H          1 MOL1         0.0742
      15    H8      22.160674   19.328649   21.267189 H          1 MOL1         0.0742
      16    C6      20.417272   18.375421   20.402144 C.3        1 MOL1        -0.1856
      17    H9      19.323636   18.425024   20.484952 H          1 MOL1         0.0742
      18    H10     20.709609   17.340459   20.627088 H          1 MOL1         0.0742
      19    C7      20.826373   18.720138   18.955936 C.3        1 MOL1        -0.2871
      20    H11     21.913782   18.642992   18.825751 H          1 MOL1         0.0754
      21    H12     20.521241   19.741948   18.694816 H          1 MOL1         0.0754
      22    H13     20.350570   18.032176   18.245029 H          1 MOL1         0.0754
@<TRIPOS>BOND
    1     1     2    1
    2     1     3    2
    3     1     4    1
    4     4     5    1
    5     4     6    1
    6     4     7    1
    7     7     8    1
    8     7     9    1
    9     7    10    1
   10    10    11    1
   11    10    12    1
   12    10    13    1
   13    13    14    1
   14    13    15    1
   15    13    16    1
   16    16    17    1
   17    16    18    1
   18    16    19    1
   19    19    20    1
   20    19    21    1
   21    19    22    1
@<TRIPOS>SUBSTRUCTURE
       1 MOL1            1 RESIDUE      1      MOL     
@<SCITEGIC>MOL_PROPERTY
VConf Rank
SciTegic.value.IntegerValue
807

@<SCITEGIC>MOL_PROPERTY
Conf_Id
SciTegic.value.IntegerValue
50

@<SCITEGIC>MOL_PROPERTY
Delta U+W
SciTegic.value.DoubleValue
-0.486

@<SCITEGIC>MOL_PROPERTY
U+W
SciTegic.value.DoubleValue
-53.646

@<SCITEGIC>MOL_PROPERTY
Grad RMS
SciTegic.value.DoubleValue
0.000000

@<SCITEGIC>MOL_PROPERTY
U
SciTegic.value.DoubleValue
7.026

@<SCITEGIC>MOL_PROPERTY
W
SciTegic.value.DoubleValue
-60.672

@<SCITEGIC>MOL_PROPERTY
W(PB)
SciTegic.value.DoubleValue
-62.964

@<SCITEGIC>MOL_PROPERTY
W(SA)
SciTegic.value.DoubleValue
2.292

@<SCITEGIC>MOL_PROPERTY
Valence
SciTegic.value.DoubleValue
7.637

@<SCITEGIC>MOL_PROPERTY
Coulomb
SciTegic.value.DoubleValue
-1.488

@<SCITEGIC>MOL_PROPERTY
VdW
SciTegic.value.DoubleValue
0.877

@<SCITEGIC>MOL_PROPERTY
VdW6
SciTegic.value.DoubleValue
-7.165

@<SCITEGIC>MOL_PROPERTY
VdW12
SciTegic.value.DoubleValue
8.043

@<SCITEGIC>MOL_PROPERTY
Bond
SciTegic.value.DoubleValue
0.134

@<SCITEGIC>MOL_PROPERTY
Angle
SciTegic.value.DoubleValue
2.513

@<SCITEGIC>MOL_PROPERTY
Pdih
SciTegic.value.DoubleValue
4.990

@<SCITEGIC>MOL_PROPERTY
Idih
SciTegic.value.DoubleValue
0.001

@<SCITEGIC>MOL_PROPERTY
Tether
SciTegic.value.DoubleValue
0.000

@<TRIPOS>MOLECULE
guest-s21_confgen4.mol2 : confsearch ligand conformer 808
          22          21           1
SMALL
USER_CHARGES
 
@<TRIPOS>ATOM
       1    C1      23.425720   19.459063   21.822849 C.2        1 MOL1         0.6145
       2    O1      24.086637   19.594122   22.833502 O.co2      1 MOL1        -0.6735
       3    O2      23.599118   20.112205   20.813001 O.co2      1 MOL1        -0.6735
       4    C2      22.303454   18.427167   21.829085 C.3        1 MOL1        -0.1985
       5    H1      22.607676   17.597218   22.478121 H          1 MOL1         0.0740
       6    H2      22.204364   18.025291   20.813543 H          1 MOL1         0.0740
       7    C3      20.951148   19.011925   22.306185 C.3        1 MOL1        -0.1882
       8    H3      21.069267   19.418078   23.320282 H          1 MOL1         0.0742
       9    H4      20.678532   19.852231   21.654237 H          1 MOL1         0.0742
      10    C4      19.830978   17.945987   22.298295 C.3        1 MOL1        -0.1880
      11    H5      20.156343   17.081989   22.893784 H          1 MOL1         0.0742
      12    H6      19.676729   17.577712   21.274787 H          1 MOL1         0.0742
      13    C5      18.488606   18.458360   22.871943 C.3        1 MOL1        -0.1880
      14    H7      17.794805   17.609679   22.944796 H          1 MOL1         0.0742
      15    H8      18.641611   18.823075   23.896884 H          1 MOL1         0.0742
      16    C6      17.835699   19.567413   22.016371 C.3        1 MOL1        -0.1856
      17    H9      17.730866   19.221732   20.978719 H          1 MOL1         0.0742
      18    H10     18.478945   20.456865   21.994708 H          1 MOL1         0.0742
      19    C7      16.450745   19.963944   22.566264 C.3        1 MOL1        -0.2871
      20    H11     16.529843   20.339660   23.594839 H          1 MOL1         0.0754
      21    H12     15.766936   19.105014   22.566426 H          1 MOL1         0.0754
      22    H13     16.001845   20.754028   21.950371 H          1 MOL1         0.0754
@<TRIPOS>BOND
    1     1     2    1
    2     1     3    2
    3     1     4    1
    4     4     5    1
    5     4     6    1
    6     4     7    1
    7     7     8    1
    8     7     9    1
    9     7    10    1
   10    10    11    1
   11    10    12    1
   12    10    13    1
   13    13    14    1
   14    13    15    1
   15    13    16    1
   16    16    17    1
   17    16    18    1
   18    16    19    1
   19    19    20    1
   20    19    21    1
   21    19    22    1
@<TRIPOS>SUBSTRUCTURE
       1 MOL1            1 RESIDUE      1      MOL     
@<SCITEGIC>MOL_PROPERTY
VConf Rank
SciTegic.value.IntegerValue
808

@<SCITEGIC>MOL_PROPERTY
Conf_Id
SciTegic.value.IntegerValue
51

@<SCITEGIC>MOL_PROPERTY
Delta U+W
SciTegic.value.DoubleValue
-0.517

@<SCITEGIC>MOL_PROPERTY
U+W
SciTegic.value.DoubleValue
-53.677

@<SCITEGIC>MOL_PROPERTY
Grad RMS
SciTegic.value.DoubleValue
0.000000

@<SCITEGIC>MOL_PROPERTY
U
SciTegic.value.DoubleValue
7.026

@<SCITEGIC>MOL_PROPERTY
W
SciTegic.value.DoubleValue
-60.703

@<SCITEGIC>MOL_PROPERTY
W(PB)
SciTegic.value.DoubleValue
-63.007

@<SCITEGIC>MOL_PROPERTY
W(SA)
SciTegic.value.DoubleValue
2.304

@<SCITEGIC>MOL_PROPERTY
Valence
SciTegic.value.DoubleValue
7.638

@<SCITEGIC>MOL_PROPERTY
Coulomb
SciTegic.value.DoubleValue
-1.488

@<SCITEGIC>MOL_PROPERTY
VdW
SciTegic.value.DoubleValue
0.877

@<SCITEGIC>MOL_PROPERTY
VdW6
SciTegic.value.DoubleValue
-7.165

@<SCITEGIC>MOL_PROPERTY
VdW12
SciTegic.value.DoubleValue
8.042

@<SCITEGIC>MOL_PROPERTY
Bond
SciTegic.value.DoubleValue
0.134

@<SCITEGIC>MOL_PROPERTY
Angle
SciTegic.value.DoubleValue
2.513

@<SCITEGIC>MOL_PROPERTY
Pdih
SciTegic.value.DoubleValue
4.990

@<SCITEGIC>MOL_PROPERTY
Idih
SciTegic.value.DoubleValue
0.001

@<SCITEGIC>MOL_PROPERTY
Tether
SciTegic.value.DoubleValue
0.000

@<TRIPOS>MOLECULE
guest-s21_confgen4.mol2 : confsearch ligand conformer 809
          22          21           1
SMALL
USER_CHARGES
 
@<TRIPOS>ATOM
       1    C1      22.388215   16.414367   21.925705 C.2        1 MOL1         0.6145
       2    O1      22.980529   16.506386   20.868540 O.co2      1 MOL1        -0.6735
       3    O2      22.929802   16.504191   23.009867 O.co2      1 MOL1        -0.6735
       4    C2      20.885136   16.152817   21.887253 C.3        1 MOL1        -0.1985
       5    H1      20.572770   15.760959   22.862846 H          1 MOL1         0.0740
       6    H2      20.709506   15.356493   21.154407 H          1 MOL1         0.0740
       7    C3      20.037789   17.396733   21.513531 C.3        1 MOL1        -0.1882
       8    H3      20.380945   17.794171   20.548160 H          1 MOL1         0.0742
       9    H4      18.992931   17.087617   21.374747 H          1 MOL1         0.0742
      10    C4      20.102693   18.504750   22.588553 C.3        1 MOL1        -0.1880
      11    H5      21.143419   18.831521   22.720906 H          1 MOL1         0.0742
      12    H6      19.771248   18.098970   23.554214 H          1 MOL1         0.0742
      13    C5      19.227777   19.719467   22.211144 C.3        1 MOL1        -0.1880
      14    H7      19.559856   20.124690   21.245419 H          1 MOL1         0.0742
      15    H8      18.185977   19.395766   22.081040 H          1 MOL1         0.0742
      16    C6      19.292700   20.826743   23.283885 C.3        1 MOL1        -0.1856
      17    H9      20.333300   21.154361   23.415491 H          1 MOL1         0.0742
      18    H10     18.959599   20.425487   24.251098 H          1 MOL1         0.0742
      19    C7      18.418332   22.038343   22.903280 C.3        1 MOL1        -0.2871
      20    H11     18.749932   22.479270   21.954056 H          1 MOL1         0.0754
      21    H12     18.476346   22.815420   23.676502 H          1 MOL1         0.0754
      22    H13     17.365830   21.744904   22.795907 H          1 MOL1         0.0754
@<TRIPOS>BOND
    1     1     2    1
    2     1     3    2
    3     1     4    1
    4     4     5    1
    5     4     6    1
    6     4     7    1
    7     7     8    1
    8     7     9    1
    9     7    10    1
   10    10    11    1
   11    10    12    1
   12    10    13    1
   13    13    14    1
   14    13    15    1
   15    13    16    1
   16    16    17    1
   17    16    18    1
   18    16    19    1
   19    19    20    1
   20    19    21    1
   21    19    22    1
@<TRIPOS>SUBSTRUCTURE
       1 MOL1            1 RESIDUE      1      MOL     
@<SCITEGIC>MOL_PROPERTY
VConf Rank
SciTegic.value.IntegerValue
809

@<SCITEGIC>MOL_PROPERTY
Conf_Id
SciTegic.value.IntegerValue
43

@<SCITEGIC>MOL_PROPERTY
Delta U+W
SciTegic.value.DoubleValue
-0.129

@<SCITEGIC>MOL_PROPERTY
U+W
SciTegic.value.DoubleValue
-53.289

@<SCITEGIC>MOL_PROPERTY
Grad RMS
SciTegic.value.DoubleValue
0.000000

@<SCITEGIC>MOL_PROPERTY
U
SciTegic.value.DoubleValue
7.937

@<SCITEGIC>MOL_PROPERTY
W
SciTegic.value.DoubleValue
-61.225

@<SCITEGIC>MOL_PROPERTY
W(PB)
SciTegic.value.DoubleValue
-63.523

@<SCITEGIC>MOL_PROPERTY
W(SA)
SciTegic.value.DoubleValue
2.297

@<SCITEGIC>MOL_PROPERTY
Valence
SciTegic.value.DoubleValue
7.358

@<SCITEGIC>MOL_PROPERTY
Coulomb
SciTegic.value.DoubleValue
-0.022

@<SCITEGIC>MOL_PROPERTY
VdW
SciTegic.value.DoubleValue
0.601

@<SCITEGIC>MOL_PROPERTY
VdW6
SciTegic.value.DoubleValue
-7.363

@<SCITEGIC>MOL_PROPERTY
VdW12
SciTegic.value.DoubleValue
7.964

@<SCITEGIC>MOL_PROPERTY
Bond
SciTegic.value.DoubleValue
0.121

@<SCITEGIC>MOL_PROPERTY
Angle
SciTegic.value.DoubleValue
2.425

@<SCITEGIC>MOL_PROPERTY
Pdih
SciTegic.value.DoubleValue
4.811

@<SCITEGIC>MOL_PROPERTY
Idih
SciTegic.value.DoubleValue
0.000

@<SCITEGIC>MOL_PROPERTY
Tether
SciTegic.value.DoubleValue
0.000

@<TRIPOS>MOLECULE
guest-s21_confgen4.mol2 : confsearch ligand conformer 810
          22          21           1
SMALL
USER_CHARGES
 
@<TRIPOS>ATOM
       1    C1      22.731537   18.378278   23.880171 C.2        1 MOL1         0.6145
       2    O1      22.652765   17.502454   24.718997 O.co2      1 MOL1        -0.6735
       3    O2      23.072195   19.518116   24.128191 O.co2      1 MOL1        -0.6735
       4    C2      22.401816   18.020189   22.433731 C.3        1 MOL1        -0.1985
       5    H1      22.908355   17.074806   22.206332 H          1 MOL1         0.0740
       6    H2      22.839477   18.781025   21.776096 H          1 MOL1         0.0740
       7    C3      20.884052   17.875908   22.149874 C.3        1 MOL1        -0.1882
       8    H3      20.747323   17.485342   21.132375 H          1 MOL1         0.0742
       9    H4      20.454883   17.131360   22.834793 H          1 MOL1         0.0742
      10    C4      20.123783   19.213972   22.288310 C.3        1 MOL1        -0.1880
      11    H5      20.564908   19.958389   21.611355 H          1 MOL1         0.0742
      12    H6      20.241690   19.602738   23.309273 H          1 MOL1         0.0742
      13    C5      18.621464   19.053438   21.970942 C.3        1 MOL1        -0.1880
      14    H7      18.500835   18.667471   20.949406 H          1 MOL1         0.0742
      15    H8      18.181066   18.308917   22.648325 H          1 MOL1         0.0742
      16    C6      17.861412   20.389143   22.109731 C.3        1 MOL1        -0.1856
      17    H9      18.298148   21.136016   21.432306 H          1 MOL1         0.0742
      18    H10     17.978343   20.777425   23.131038 H          1 MOL1         0.0742
      19    C7      16.361470   20.224812   21.792670 C.3        1 MOL1        -0.2871
      20    H11     16.214095   19.867084   20.765194 H          1 MOL1         0.0754
      21    H12     15.836861   21.183528   21.896282 H          1 MOL1         0.0754
      22    H13     15.891908   19.505826   22.476753 H          1 MOL1         0.0754
@<TRIPOS>BOND
    1     1     2    1
    2     1     3    2
    3     1     4    1
    4     4     5    1
    5     4     6    1
    6     4     7    1
    7     7     8    1
    8     7     9    1
    9     7    10    1
   10    10    11    1
   11    10    12    1
   12    10    13    1
   13    13    14    1
   14    13    15    1
   15    13    16    1
   16    16    17    1
   17    16    18    1
   18    16    19    1
   19    19    20    1
   20    19    21    1
   21    19    22    1
@<TRIPOS>SUBSTRUCTURE
       1 MOL1            1 RESIDUE      1      MOL     
@<SCITEGIC>MOL_PROPERTY
VConf Rank
SciTegic.value.IntegerValue
810

@<SCITEGIC>MOL_PROPERTY
Conf_Id
SciTegic.value.IntegerValue
44

@<SCITEGIC>MOL_PROPERTY
Delta U+W
SciTegic.value.DoubleValue
-0.155

@<SCITEGIC>MOL_PROPERTY
U+W
SciTegic.value.DoubleValue
-53.314

@<SCITEGIC>MOL_PROPERTY
Grad RMS
SciTegic.value.DoubleValue
0.000000

@<SCITEGIC>MOL_PROPERTY
U
SciTegic.value.DoubleValue
7.937

@<SCITEGIC>MOL_PROPERTY
W
SciTegic.value.DoubleValue
-61.252

@<SCITEGIC>MOL_PROPERTY
W(PB)
SciTegic.value.DoubleValue
-63.556

@<SCITEGIC>MOL_PROPERTY
W(SA)
SciTegic.value.DoubleValue
2.304

@<SCITEGIC>MOL_PROPERTY
Valence
SciTegic.value.DoubleValue
7.358

@<SCITEGIC>MOL_PROPERTY
Coulomb
SciTegic.value.DoubleValue
-0.021

@<SCITEGIC>MOL_PROPERTY
VdW
SciTegic.value.DoubleValue
0.600

@<SCITEGIC>MOL_PROPERTY
VdW6
SciTegic.value.DoubleValue
-7.363

@<SCITEGIC>MOL_PROPERTY
VdW12
SciTegic.value.DoubleValue
7.964

@<SCITEGIC>MOL_PROPERTY
Bond
SciTegic.value.DoubleValue
0.121

@<SCITEGIC>MOL_PROPERTY
Angle
SciTegic.value.DoubleValue
2.425

@<SCITEGIC>MOL_PROPERTY
Pdih
SciTegic.value.DoubleValue
4.811

@<SCITEGIC>MOL_PROPERTY
Idih
SciTegic.value.DoubleValue
0.001

@<SCITEGIC>MOL_PROPERTY
Tether
SciTegic.value.DoubleValue
0.000

@<TRIPOS>MOLECULE
guest-s21_confgen4.mol2 : confsearch ligand conformer 811
          22          21           1
SMALL
USER_CHARGES
 
@<TRIPOS>ATOM
       1    C1      20.123769   20.723930   25.385459 C.2        1 MOL1         0.6145
       2    O1      20.721240   21.772682   25.243791 O.co2      1 MOL1        -0.6735
       3    O2      20.411960   19.894297   26.225413 O.co2      1 MOL1        -0.6735
       4    C2      18.935034   20.444099   24.470082 C.3        1 MOL1        -0.1985
       5    H1      18.325878   21.355089   24.437576 H          1 MOL1         0.0740
       6    H2      18.315244   19.664106   24.928733 H          1 MOL1         0.0740
       7    C3      19.330218   20.034347   23.027321 C.3        1 MOL1        -0.1882
       8    H3      18.421599   20.007875   22.412605 H          1 MOL1         0.0742
       9    H4      19.983235   20.805692   22.596049 H          1 MOL1         0.0742
      10    C4      20.036708   18.658425   22.973263 C.3        1 MOL1        -0.1880
      11    H5      19.366299   17.881770   23.365896 H          1 MOL1         0.0742
      12    H6      20.911502   18.676142   23.637652 H          1 MOL1         0.0742
      13    C5      20.512022   18.264518   21.554553 C.3        1 MOL1        -0.1880
      14    H7      21.182239   19.041568   21.162225 H          1 MOL1         0.0742
      15    H8      21.111843   17.347346   21.631448 H          1 MOL1         0.0742
      16    C6      19.354199   18.023558   20.559661 C.3        1 MOL1        -0.1856
      17    H9      18.788137   18.951433   20.405270 H          1 MOL1         0.0742
      18    H10     18.654573   17.286134   20.976703 H          1 MOL1         0.0742
      19    C7      19.874656   17.522078   19.197538 C.3        1 MOL1        -0.2871
      20    H11     20.556609   18.253633   18.744600 H          1 MOL1         0.0754
      21    H12     19.041609   17.358939   18.501491 H          1 MOL1         0.0754
      22    H13     20.414485   16.572492   19.308117 H          1 MOL1         0.0754
@<TRIPOS>BOND
    1     1     2    1
    2     1     3    2
    3     1     4    1
    4     4     5    1
    5     4     6    1
    6     4     7    1
    7     7     8    1
    8     7     9    1
    9     7    10    1
   10    10    11    1
   11    10    12    1
   12    10    13    1
   13    13    14    1
   14    13    15    1
   15    13    16    1
   16    16    17    1
   17    16    18    1
   18    16    19    1
   19    19    20    1
   20    19    21    1
   21    19    22    1
@<TRIPOS>SUBSTRUCTURE
       1 MOL1            1 RESIDUE      1      MOL     
@<SCITEGIC>MOL_PROPERTY
VConf Rank
SciTegic.value.IntegerValue
811

@<SCITEGIC>MOL_PROPERTY
Conf_Id
SciTegic.value.IntegerValue
53

@<SCITEGIC>MOL_PROPERTY
Delta U+W
SciTegic.value.DoubleValue
0.723

@<SCITEGIC>MOL_PROPERTY
U+W
SciTegic.value.DoubleValue
-52.436

@<SCITEGIC>MOL_PROPERTY
Grad RMS
SciTegic.value.DoubleValue
0.000000

@<SCITEGIC>MOL_PROPERTY
U
SciTegic.value.DoubleValue
8.587

@<SCITEGIC>MOL_PROPERTY
W
SciTegic.value.DoubleValue
-61.022

@<SCITEGIC>MOL_PROPERTY
W(PB)
SciTegic.value.DoubleValue
-63.285

@<SCITEGIC>MOL_PROPERTY
W(SA)
SciTegic.value.DoubleValue
2.263

@<SCITEGIC>MOL_PROPERTY
Valence
SciTegic.value.DoubleValue
7.933

@<SCITEGIC>MOL_PROPERTY
Coulomb
SciTegic.value.DoubleValue
-0.124

@<SCITEGIC>MOL_PROPERTY
VdW
SciTegic.value.DoubleValue
0.778

@<SCITEGIC>MOL_PROPERTY
VdW6
SciTegic.value.DoubleValue
-7.981

@<SCITEGIC>MOL_PROPERTY
VdW12
SciTegic.value.DoubleValue
8.759

@<SCITEGIC>MOL_PROPERTY
Bond
SciTegic.value.DoubleValue
0.160

@<SCITEGIC>MOL_PROPERTY
Angle
SciTegic.value.DoubleValue
2.698

@<SCITEGIC>MOL_PROPERTY
Pdih
SciTegic.value.DoubleValue
5.074

@<SCITEGIC>MOL_PROPERTY
Idih
SciTegic.value.DoubleValue
0.001

@<SCITEGIC>MOL_PROPERTY
Tether
SciTegic.value.DoubleValue
0.000

@<TRIPOS>MOLECULE
guest-s21_confgen4.mol2 : confsearch ligand conformer 812
          22          21           1
SMALL
USER_CHARGES
 
@<TRIPOS>ATOM
       1    C1      16.764032   20.208851   21.502018 C.2        1 MOL1         0.6145
       2    O1      16.879661   20.879901   20.495593 O.co2      1 MOL1        -0.6735
       3    O2      15.698118   19.978639   22.038127 O.co2      1 MOL1        -0.6735
       4    C2      18.022763   19.603960   22.113331 C.3        1 MOL1        -0.1985
       5    H1      17.873975   19.530193   23.197168 H          1 MOL1         0.0740
       6    H2      18.845744   20.306240   21.939449 H          1 MOL1         0.0740
       7    C3      18.367867   18.213261   21.523423 C.3        1 MOL1        -0.1882
       8    H3      17.477502   17.572608   21.588495 H          1 MOL1         0.0742
       9    H4      18.591714   18.320354   20.453059 H          1 MOL1         0.0742
      10    C4      19.543717   17.493391   22.230409 C.3        1 MOL1        -0.1880
      11    H5      19.659368   16.507914   21.758808 H          1 MOL1         0.0742
      12    H6      19.287657   17.293444   23.279890 H          1 MOL1         0.0742
      13    C5      20.902165   18.233777   22.140105 C.3        1 MOL1        -0.1880
      14    H7      21.699968   17.485663   22.036046 H          1 MOL1         0.0742
      15    H8      20.938000   18.847095   21.229325 H          1 MOL1         0.0742
      16    C6      21.213333   19.097755   23.384079 C.3        1 MOL1        -0.1856
      17    H9      21.230653   18.460523   24.278970 H          1 MOL1         0.0742
      18    H10     20.424549   19.842360   23.544536 H          1 MOL1         0.0742
      19    C7      22.569386   19.818596   23.246815 C.3        1 MOL1        -0.2871
      20    H11     23.387771   19.096928   23.125268 H          1 MOL1         0.0754
      21    H12     22.779065   20.421631   24.139798 H          1 MOL1         0.0754
      22    H13     22.570983   20.488784   22.377216 H          1 MOL1         0.0754
@<TRIPOS>BOND
    1     1     2    1
    2     1     3    2
    3     1     4    1
    4     4     5    1
    5     4     6    1
    6     4     7    1
    7     7     8    1
    8     7     9    1
    9     7    10    1
   10    10    11    1
   11    10    12    1
   12    10    13    1
   13    13    14    1
   14    13    15    1
   15    13    16    1
   16    16    17    1
   17    16    18    1
   18    16    19    1
   19    19    20    1
   20    19    21    1
   21    19    22    1
@<TRIPOS>SUBSTRUCTURE
       1 MOL1            1 RESIDUE      1      MOL     
@<SCITEGIC>MOL_PROPERTY
VConf Rank
SciTegic.value.IntegerValue
812

@<SCITEGIC>MOL_PROPERTY
Conf_Id
SciTegic.value.IntegerValue
5

@<SCITEGIC>MOL_PROPERTY
Delta U+W
SciTegic.value.DoubleValue
2.167

@<SCITEGIC>MOL_PROPERTY
U+W
SciTegic.value.DoubleValue
-50.993

@<SCITEGIC>MOL_PROPERTY
Grad RMS
SciTegic.value.DoubleValue
0.000000

@<SCITEGIC>MOL_PROPERTY
U
SciTegic.value.DoubleValue
10.045

@<SCITEGIC>MOL_PROPERTY
W
SciTegic.value.DoubleValue
-61.037

@<SCITEGIC>MOL_PROPERTY
W(PB)
SciTegic.value.DoubleValue
-63.303

@<SCITEGIC>MOL_PROPERTY
W(SA)
SciTegic.value.DoubleValue
2.266

@<SCITEGIC>MOL_PROPERTY
Valence
SciTegic.value.DoubleValue
10.100

@<SCITEGIC>MOL_PROPERTY
Coulomb
SciTegic.value.DoubleValue
-0.883

@<SCITEGIC>MOL_PROPERTY
VdW
SciTegic.value.DoubleValue
0.828

@<SCITEGIC>MOL_PROPERTY
VdW6
SciTegic.value.DoubleValue
-8.177

@<SCITEGIC>MOL_PROPERTY
VdW12
SciTegic.value.DoubleValue
9.005

@<SCITEGIC>MOL_PROPERTY
Bond
SciTegic.value.DoubleValue
0.182

@<SCITEGIC>MOL_PROPERTY
Angle
SciTegic.value.DoubleValue
2.988

@<SCITEGIC>MOL_PROPERTY
Pdih
SciTegic.value.DoubleValue
6.930

@<SCITEGIC>MOL_PROPERTY
Idih
SciTegic.value.DoubleValue
0.001

@<SCITEGIC>MOL_PROPERTY
Tether
SciTegic.value.DoubleValue
0.000

@<TRIPOS>MOLECULE
guest-s21_confgen4.mol2 : confsearch ligand conformer 813
          22          21           1
SMALL
USER_CHARGES
 
@<TRIPOS>ATOM
       1    C1      18.767518   21.436928   20.467673 C.2        1 MOL1         0.6145
       2    O1      17.747463   21.878846   20.958353 O.co2      1 MOL1        -0.6735
       3    O2      19.232958   21.829496   19.416084 O.co2      1 MOL1        -0.6735
       4    C2      19.490986   20.312461   21.199910 C.3        1 MOL1        -0.1985
       5    H1      19.351001   20.473376   22.274732 H          1 MOL1         0.0740
       6    H2      20.563161   20.402357   20.988626 H          1 MOL1         0.0740
       7    C3      18.980521   18.906564   20.794917 C.3        1 MOL1        -0.1882
       8    H3      17.925985   18.807173   21.087030 H          1 MOL1         0.0742
       9    H4      19.004791   18.825480   19.699354 H          1 MOL1         0.0742
      10    C4      19.797706   17.733624   21.392489 C.3        1 MOL1        -0.1880
      11    H5      20.832577   17.769013   21.025414 H          1 MOL1         0.0742
      12    H6      19.373189   16.800335   20.997895 H          1 MOL1         0.0742
      13    C5      19.778590   17.655779   22.940160 C.3        1 MOL1        -0.1880
      14    H7      18.850353   18.096517   23.328861 H          1 MOL1         0.0742
      15    H8      19.761106   16.597638   23.235161 H          1 MOL1         0.0742
      16    C6      21.008444   18.318688   23.602556 C.3        1 MOL1        -0.1856
      17    H9      21.082938   19.373115   23.311012 H          1 MOL1         0.0742
      18    H10     21.925608   17.828921   23.247403 H          1 MOL1         0.0742
      19    C7      20.943081   18.222138   25.140002 C.3        1 MOL1        -0.2871
      20    H11     20.051327   18.732109   25.527383 H          1 MOL1         0.0754
      21    H12     21.825644   18.690333   25.594874 H          1 MOL1         0.0754
      22    H13     20.908524   17.174686   25.467082 H          1 MOL1         0.0754
@<TRIPOS>BOND
    1     1     2    1
    2     1     3    2
    3     1     4    1
    4     4     5    1
    5     4     6    1
    6     4     7    1
    7     7     8    1
    8     7     9    1
    9     7    10    1
   10    10    11    1
   11    10    12    1
   12    10    13    1
   13    13    14    1
   14    13    15    1
   15    13    16    1
   16    16    17    1
   17    16    18    1
   18    16    19    1
   19    19    20    1
   20    19    21    1
   21    19    22    1
@<TRIPOS>SUBSTRUCTURE
       1 MOL1            1 RESIDUE      1      MOL     
@<SCITEGIC>MOL_PROPERTY
VConf Rank
SciTegic.value.IntegerValue
813

@<SCITEGIC>MOL_PROPERTY
Conf_Id
SciTegic.value.IntegerValue
6

@<SCITEGIC>MOL_PROPERTY
Delta U+W
SciTegic.value.DoubleValue
2.118

@<SCITEGIC>MOL_PROPERTY
U+W
SciTegic.value.DoubleValue
-51.042

@<SCITEGIC>MOL_PROPERTY
Grad RMS
SciTegic.value.DoubleValue
0.000000

@<SCITEGIC>MOL_PROPERTY
U
SciTegic.value.DoubleValue
10.045

@<SCITEGIC>MOL_PROPERTY
W
SciTegic.value.DoubleValue
-61.086

@<SCITEGIC>MOL_PROPERTY
W(PB)
SciTegic.value.DoubleValue
-63.356

@<SCITEGIC>MOL_PROPERTY
W(SA)
SciTegic.value.DoubleValue
2.270

@<SCITEGIC>MOL_PROPERTY
Valence
SciTegic.value.DoubleValue
10.100

@<SCITEGIC>MOL_PROPERTY
Coulomb
SciTegic.value.DoubleValue
-0.883

@<SCITEGIC>MOL_PROPERTY
VdW
SciTegic.value.DoubleValue
0.828

@<SCITEGIC>MOL_PROPERTY
VdW6
SciTegic.value.DoubleValue
-8.177

@<SCITEGIC>MOL_PROPERTY
VdW12
SciTegic.value.DoubleValue
9.004

@<SCITEGIC>MOL_PROPERTY
Bond
SciTegic.value.DoubleValue
0.182

@<SCITEGIC>MOL_PROPERTY
Angle
SciTegic.value.DoubleValue
2.988

@<SCITEGIC>MOL_PROPERTY
Pdih
SciTegic.value.DoubleValue
6.930

@<SCITEGIC>MOL_PROPERTY
Idih
SciTegic.value.DoubleValue
0.001

@<SCITEGIC>MOL_PROPERTY
Tether
SciTegic.value.DoubleValue
0.000

@<TRIPOS>MOLECULE
guest-s21_confgen4.mol2 : confsearch ligand conformer 814
          22          21           1
SMALL
USER_CHARGES
 
@<TRIPOS>ATOM
       1    C1      19.379161   16.384833   21.861733 C.2        1 MOL1         0.6145
       2    O1      19.160052   15.753153   22.876852 O.co2      1 MOL1        -0.6735
       3    O2      20.422287   16.316485   21.241836 O.co2      1 MOL1        -0.6735
       4    C2      18.260520   17.256881   21.294608 C.3        1 MOL1        -0.1985
       5    H1      17.441813   16.576414   21.033426 H          1 MOL1         0.0740
       6    H2      18.602726   17.710497   20.356540 H          1 MOL1         0.0740
       7    C3      17.720134   18.352140   22.256623 C.3        1 MOL1        -0.1882
       8    H3      16.721926   18.647991   21.906661 H          1 MOL1         0.0742
       9    H4      17.575272   17.930335   23.260948 H          1 MOL1         0.0742
      10    C4      18.589405   19.631451   22.338140 C.3        1 MOL1        -0.1880
      11    H5      18.036319   20.384171   22.916485 H          1 MOL1         0.0742
      12    H6      18.723127   20.052246   21.332218 H          1 MOL1         0.0742
      13    C5      19.969913   19.414460   22.998156 C.3        1 MOL1        -0.1880
      14    H7      19.842170   18.899809   23.960373 H          1 MOL1         0.0742
      15    H8      20.587839   18.764699   22.365668 H          1 MOL1         0.0742
      16    C6      20.712223   20.749242   23.220141 C.3        1 MOL1        -0.1856
      17    H9      20.108765   21.407878   23.859979 H          1 MOL1         0.0742
      18    H10     20.839180   21.266037   22.258778 H          1 MOL1         0.0742
      19    C7      22.093019   20.529703   23.870235 C.3        1 MOL1        -0.2871
      20    H11     21.993039   20.041732   24.848630 H          1 MOL1         0.0754
      21    H12     22.607284   21.487908   24.019905 H          1 MOL1         0.0754
      22    H13     22.729312   19.898467   23.236063 H          1 MOL1         0.0754
@<TRIPOS>BOND
    1     1     2    1
    2     1     3    2
    3     1     4    1
    4     4     5    1
    5     4     6    1
    6     4     7    1
    7     7     8    1
    8     7     9    1
    9     7    10    1
   10    10    11    1
   11    10    12    1
   12    10    13    1
   13    13    14    1
   14    13    15    1
   15    13    16    1
   16    16    17    1
   17    16    18    1
   18    16    19    1
   19    19    20    1
   20    19    21    1
   21    19    22    1
@<TRIPOS>SUBSTRUCTURE
       1 MOL1            1 RESIDUE      1      MOL     
@<SCITEGIC>MOL_PROPERTY
VConf Rank
SciTegic.value.IntegerValue
814

@<SCITEGIC>MOL_PROPERTY
Conf_Id
SciTegic.value.IntegerValue
8

@<SCITEGIC>MOL_PROPERTY
Delta U+W
SciTegic.value.DoubleValue
1.886

@<SCITEGIC>MOL_PROPERTY
U+W
SciTegic.value.DoubleValue
-51.274

@<SCITEGIC>MOL_PROPERTY
Grad RMS
SciTegic.value.DoubleValue
0.000000

@<SCITEGIC>MOL_PROPERTY
U
SciTegic.value.DoubleValue
11.237

@<SCITEGIC>MOL_PROPERTY
W
SciTegic.value.DoubleValue
-62.510

@<SCITEGIC>MOL_PROPERTY
W(PB)
SciTegic.value.DoubleValue
-64.777

@<SCITEGIC>MOL_PROPERTY
W(SA)
SciTegic.value.DoubleValue
2.267

@<SCITEGIC>MOL_PROPERTY
Valence
SciTegic.value.DoubleValue
9.029

@<SCITEGIC>MOL_PROPERTY
Coulomb
SciTegic.value.DoubleValue
1.667

@<SCITEGIC>MOL_PROPERTY
VdW
SciTegic.value.DoubleValue
0.540

@<SCITEGIC>MOL_PROPERTY
VdW6
SciTegic.value.DoubleValue
-8.825

@<SCITEGIC>MOL_PROPERTY
VdW12
SciTegic.value.DoubleValue
9.365

@<SCITEGIC>MOL_PROPERTY
Bond
SciTegic.value.DoubleValue
0.186

@<SCITEGIC>MOL_PROPERTY
Angle
SciTegic.value.DoubleValue
3.195

@<SCITEGIC>MOL_PROPERTY
Pdih
SciTegic.value.DoubleValue
5.642

@<SCITEGIC>MOL_PROPERTY
Idih
SciTegic.value.DoubleValue
0.007

@<SCITEGIC>MOL_PROPERTY
Tether
SciTegic.value.DoubleValue
0.000

@<TRIPOS>MOLECULE
guest-s21_confgen4.mol2 : confsearch ligand conformer 815
          22          21           1
SMALL
USER_CHARGES
 
@<TRIPOS>ATOM
       1    C1      18.970340   16.519539   24.231036 C.2        1 MOL1         0.6145
       2    O1      20.021469   15.994897   23.920164 O.co2      1 MOL1        -0.6735
       3    O2      17.903443   15.937275   24.233360 O.co2      1 MOL1        -0.6735
       4    C2      18.993084   17.980536   24.671645 C.3        1 MOL1        -0.1985
       5    H1      20.029263   18.268017   24.882347 H          1 MOL1         0.0740
       6    H2      18.455847   18.041075   25.625288 H          1 MOL1         0.0740
       7    C3      18.345629   18.961085   23.655538 C.3        1 MOL1        -0.1882
       8    H3      17.288287   18.689293   23.531107 H          1 MOL1         0.0742
       9    H4      18.354395   19.975127   24.077407 H          1 MOL1         0.0742
      10    C4      19.019826   18.983297   22.261373 C.3        1 MOL1        -0.1880
      11    H5      18.424201   19.633065   21.607901 H          1 MOL1         0.0742
      12    H6      18.984163   17.979654   21.816005 H          1 MOL1         0.0742
      13    C5      20.484127   19.485571   22.292802 C.3        1 MOL1        -0.1880
      14    H7      20.526487   20.480865   22.755497 H          1 MOL1         0.0742
      15    H8      21.082302   18.818685   22.927138 H          1 MOL1         0.0742
      16    C6      21.146620   19.534886   20.896138 C.3        1 MOL1        -0.1856
      17    H9      21.091708   18.543877   20.424691 H          1 MOL1         0.0742
      18    H10     22.214792   19.759225   21.022068 H          1 MOL1         0.0742
      19    C7      20.526213   20.593495   19.958453 C.3        1 MOL1        -0.2871
      20    H11     19.488516   20.345687   19.703255 H          1 MOL1         0.0754
      21    H12     21.092746   20.653444   19.020186 H          1 MOL1         0.0754
      22    H13     20.539044   21.587232   20.424737 H          1 MOL1         0.0754
@<TRIPOS>BOND
    1     1     2    1
    2     1     3    2
    3     1     4    1
    4     4     5    1
    5     4     6    1
    6     4     7    1
    7     7     8    1
    8     7     9    1
    9     7    10    1
   10    10    11    1
   11    10    12    1
   12    10    13    1
   13    13    14    1
   14    13    15    1
   15    13    16    1
   16    16    17    1
   17    16    18    1
   18    16    19    1
   19    19    20    1
   20    19    21    1
   21    19    22    1
@<TRIPOS>SUBSTRUCTURE
       1 MOL1            1 RESIDUE      1      MOL     
@<SCITEGIC>MOL_PROPERTY
VConf Rank
SciTegic.value.IntegerValue
815

@<SCITEGIC>MOL_PROPERTY
Conf_Id
SciTegic.value.IntegerValue
93

@<SCITEGIC>MOL_PROPERTY
Delta U+W
SciTegic.value.DoubleValue
1.836

@<SCITEGIC>MOL_PROPERTY
U+W
SciTegic.value.DoubleValue
-51.323

@<SCITEGIC>MOL_PROPERTY
Grad RMS
SciTegic.value.DoubleValue
0.000000

@<SCITEGIC>MOL_PROPERTY
U
SciTegic.value.DoubleValue
10.427

@<SCITEGIC>MOL_PROPERTY
W
SciTegic.value.DoubleValue
-61.751

@<SCITEGIC>MOL_PROPERTY
W(PB)
SciTegic.value.DoubleValue
-63.980

@<SCITEGIC>MOL_PROPERTY
W(SA)
SciTegic.value.DoubleValue
2.230

@<SCITEGIC>MOL_PROPERTY
Valence
SciTegic.value.DoubleValue
8.446

@<SCITEGIC>MOL_PROPERTY
Coulomb
SciTegic.value.DoubleValue
1.306

@<SCITEGIC>MOL_PROPERTY
VdW
SciTegic.value.DoubleValue
0.676

@<SCITEGIC>MOL_PROPERTY
VdW6
SciTegic.value.DoubleValue
-8.928

@<SCITEGIC>MOL_PROPERTY
VdW12
SciTegic.value.DoubleValue
9.604

@<SCITEGIC>MOL_PROPERTY
Bond
SciTegic.value.DoubleValue
0.209

@<SCITEGIC>MOL_PROPERTY
Angle
SciTegic.value.DoubleValue
3.066

@<SCITEGIC>MOL_PROPERTY
Pdih
SciTegic.value.DoubleValue
5.170

@<SCITEGIC>MOL_PROPERTY
Idih
SciTegic.value.DoubleValue
0.001

@<SCITEGIC>MOL_PROPERTY
Tether
SciTegic.value.DoubleValue
0.000

@<TRIPOS>MOLECULE
guest-s21_confgen4.mol2 : confsearch ligand conformer 816
          22          21           1
SMALL
USER_CHARGES
 
@<TRIPOS>ATOM
       1    C1      17.454645   17.159455   23.230761 C.2        1 MOL1         0.6145
       2    O1      16.775740   16.520495   22.450938 O.co2      1 MOL1        -0.6735
       3    O2      17.001956   17.997331   23.985615 O.co2      1 MOL1        -0.6735
       4    C2      18.952292   16.870728   23.284152 C.3        1 MOL1        -0.1985
       5    H1      19.071107   15.784979   23.377723 H          1 MOL1         0.0740
       6    H2      19.361683   17.306286   24.202519 H          1 MOL1         0.0740
       7    C3      19.740130   17.367232   22.040792 C.3        1 MOL1        -0.1882
       8    H3      20.792498   17.068169   22.137819 H          1 MOL1         0.0742
       9    H4      19.354394   16.849511   21.151691 H          1 MOL1         0.0742
      10    C4      19.664843   18.894908   21.797341 C.3        1 MOL1        -0.1880
      11    H5      18.617413   19.198061   21.663498 H          1 MOL1         0.0742
      12    H6      20.173222   19.111864   20.849461 H          1 MOL1         0.0742
      13    C5      20.306775   19.732006   22.930757 C.3        1 MOL1        -0.1880
      14    H7      19.779428   19.531500   23.872371 H          1 MOL1         0.0742
      15    H8      21.348603   19.418185   23.081104 H          1 MOL1         0.0742
      16    C6      20.256893   21.256066   22.672403 C.3        1 MOL1        -0.1856
      17    H9      20.596625   21.776914   23.578204 H          1 MOL1         0.0742
      18    H10     19.217078   21.569959   22.506163 H          1 MOL1         0.0742
      19    C7      21.134072   21.707199   21.484192 C.3        1 MOL1        -0.2871
      20    H11     20.759055   21.308501   20.533534 H          1 MOL1         0.0754
      21    H12     22.171913   21.373431   21.612974 H          1 MOL1         0.0754
      22    H13     21.138814   22.802031   21.405326 H          1 MOL1         0.0754
@<TRIPOS>BOND
    1     1     2    1
    2     1     3    2
    3     1     4    1
    4     4     5    1
    5     4     6    1
    6     4     7    1
    7     7     8    1
    8     7     9    1
    9     7    10    1
   10    10    11    1
   11    10    12    1
   12    10    13    1
   13    13    14    1
   14    13    15    1
   15    13    16    1
   16    16    17    1
   17    16    18    1
   18    16    19    1
   19    19    20    1
   20    19    21    1
   21    19    22    1
@<TRIPOS>SUBSTRUCTURE
       1 MOL1            1 RESIDUE      1      MOL     
@<SCITEGIC>MOL_PROPERTY
VConf Rank
SciTegic.value.IntegerValue
816

@<SCITEGIC>MOL_PROPERTY
Conf_Id
SciTegic.value.IntegerValue
70

@<SCITEGIC>MOL_PROPERTY
Delta U+W
SciTegic.value.DoubleValue
1.803

@<SCITEGIC>MOL_PROPERTY
U+W
SciTegic.value.DoubleValue
-51.356

@<SCITEGIC>MOL_PROPERTY
Grad RMS
SciTegic.value.DoubleValue
0.000000

@<SCITEGIC>MOL_PROPERTY
U
SciTegic.value.DoubleValue
10.428

@<SCITEGIC>MOL_PROPERTY
W
SciTegic.value.DoubleValue
-61.784

@<SCITEGIC>MOL_PROPERTY
W(PB)
SciTegic.value.DoubleValue
-64.014

@<SCITEGIC>MOL_PROPERTY
W(SA)
SciTegic.value.DoubleValue
2.230

@<SCITEGIC>MOL_PROPERTY
Valence
SciTegic.value.DoubleValue
8.445

@<SCITEGIC>MOL_PROPERTY
Coulomb
SciTegic.value.DoubleValue
1.306

@<SCITEGIC>MOL_PROPERTY
VdW
SciTegic.value.DoubleValue
0.676

@<SCITEGIC>MOL_PROPERTY
VdW6
SciTegic.value.DoubleValue
-8.929

@<SCITEGIC>MOL_PROPERTY
VdW12
SciTegic.value.DoubleValue
9.605

@<SCITEGIC>MOL_PROPERTY
Bond
SciTegic.value.DoubleValue
0.209

@<SCITEGIC>MOL_PROPERTY
Angle
SciTegic.value.DoubleValue
3.066

@<SCITEGIC>MOL_PROPERTY
Pdih
SciTegic.value.DoubleValue
5.170

@<SCITEGIC>MOL_PROPERTY
Idih
SciTegic.value.DoubleValue
0.001

@<SCITEGIC>MOL_PROPERTY
Tether
SciTegic.value.DoubleValue
0.000

@<TRIPOS>MOLECULE
guest-s21_confgen4.mol2 : confsearch ligand conformer 817
          22          21           1
SMALL
USER_CHARGES
 
@<TRIPOS>ATOM
       1    C1      17.596756   18.812129   24.965495 C.2        1 MOL1         0.6145
       2    O1      17.009342   19.875883   24.948554 O.co2      1 MOL1        -0.6735
       3    O2      18.214739   18.400573   25.927574 O.co2      1 MOL1        -0.6735
       4    C2      17.536140   17.937352   23.716421 C.3        1 MOL1        -0.1985
       5    H1      16.495291   17.928222   23.372053 H          1 MOL1         0.0740
       6    H2      17.786216   16.907270   23.997904 H          1 MOL1         0.0740
       7    C3      18.458168   18.417989   22.565841 C.3        1 MOL1        -0.1882
       8    H3      18.255081   17.815252   21.670448 H          1 MOL1         0.0742
       9    H4      18.202239   19.455939   22.315259 H          1 MOL1         0.0742
      10    C4      19.959268   18.308826   22.925488 C.3        1 MOL1        -0.1880
      11    H5      20.173207   17.283453   23.256668 H          1 MOL1         0.0742
      12    H6      20.187247   18.962971   23.778380 H          1 MOL1         0.0742
      13    C5      20.901556   18.651217   21.747188 C.3        1 MOL1        -0.1880
      14    H7      21.933659   18.429685   22.051453 H          1 MOL1         0.0742
      15    H8      20.680809   17.993132   20.895683 H          1 MOL1         0.0742
      16    C6      20.816594   20.128108   21.300262 C.3        1 MOL1        -0.1856
      17    H9      20.985164   20.786644   22.163502 H          1 MOL1         0.0742
      18    H10     19.811470   20.350768   20.918809 H          1 MOL1         0.0742
      19    C7      21.851578   20.447197   20.202663 C.3        1 MOL1        -0.2871
      20    H11     22.873744   20.272287   20.563127 H          1 MOL1         0.0754
      21    H12     21.776493   21.498002   19.894069 H          1 MOL1         0.0754
      22    H13     21.688691   19.820898   19.315763 H          1 MOL1         0.0754
@<TRIPOS>BOND
    1     1     2    1
    2     1     3    2
    3     1     4    1
    4     4     5    1
    5     4     6    1
    6     4     7    1
    7     7     8    1
    8     7     9    1
    9     7    10    1
   10    10    11    1
   11    10    12    1
   12    10    13    1
   13    13    14    1
   14    13    15    1
   15    13    16    1
   16    16    17    1
   17    16    18    1
   18    16    19    1
   19    19    20    1
   20    19    21    1
   21    19    22    1
@<TRIPOS>SUBSTRUCTURE
       1 MOL1            1 RESIDUE      1      MOL     
@<SCITEGIC>MOL_PROPERTY
VConf Rank
SciTegic.value.IntegerValue
817

@<SCITEGIC>MOL_PROPERTY
Conf_Id
SciTegic.value.IntegerValue
85

@<SCITEGIC>MOL_PROPERTY
Delta U+W
SciTegic.value.DoubleValue
0.707

@<SCITEGIC>MOL_PROPERTY
U+W
SciTegic.value.DoubleValue
-52.452

@<SCITEGIC>MOL_PROPERTY
Grad RMS
SciTegic.value.DoubleValue
0.000000

@<SCITEGIC>MOL_PROPERTY
U
SciTegic.value.DoubleValue
8.925

@<SCITEGIC>MOL_PROPERTY
W
SciTegic.value.DoubleValue
-61.378

@<SCITEGIC>MOL_PROPERTY
W(PB)
SciTegic.value.DoubleValue
-63.661

@<SCITEGIC>MOL_PROPERTY
W(SA)
SciTegic.value.DoubleValue
2.283

@<SCITEGIC>MOL_PROPERTY
Valence
SciTegic.value.DoubleValue
7.881

@<SCITEGIC>MOL_PROPERTY
Coulomb
SciTegic.value.DoubleValue
0.349

@<SCITEGIC>MOL_PROPERTY
VdW
SciTegic.value.DoubleValue
0.695

@<SCITEGIC>MOL_PROPERTY
VdW6
SciTegic.value.DoubleValue
-8.049

@<SCITEGIC>MOL_PROPERTY
VdW12
SciTegic.value.DoubleValue
8.743

@<SCITEGIC>MOL_PROPERTY
Bond
SciTegic.value.DoubleValue
0.156

@<SCITEGIC>MOL_PROPERTY
Angle
SciTegic.value.DoubleValue
2.660

@<SCITEGIC>MOL_PROPERTY
Pdih
SciTegic.value.DoubleValue
5.064

@<SCITEGIC>MOL_PROPERTY
Idih
SciTegic.value.DoubleValue
0.001

@<SCITEGIC>MOL_PROPERTY
Tether
SciTegic.value.DoubleValue
0.000

@<TRIPOS>MOLECULE
guest-s21_confgen4.mol2 : confsearch ligand conformer 818
          22          21           1
SMALL
USER_CHARGES
 
@<TRIPOS>ATOM
       1    C1      18.484257   16.759170   24.558681 C.2        1 MOL1         0.6145
       2    O1      18.825153   16.982132   25.703678 O.co2      1 MOL1        -0.6735
       3    O2      17.331136   16.567971   24.225923 O.co2      1 MOL1        -0.6735
       4    C2      19.564144   16.692223   23.482225 C.3        1 MOL1        -0.1985
       5    H1      19.368314   15.798416   22.878281 H          1 MOL1         0.0740
       6    H2      20.535425   16.540263   23.968412 H          1 MOL1         0.0740
       7    C3      19.616288   17.937955   22.559662 C.3        1 MOL1        -0.1882
       8    H3      20.307120   17.727355   21.733645 H          1 MOL1         0.0742
       9    H4      18.625023   18.105770   22.116370 H          1 MOL1         0.0742
      10    C4      20.082395   19.210665   23.303998 C.3        1 MOL1        -0.1880
      11    H5      21.107745   19.064330   23.669981 H          1 MOL1         0.0742
      12    H6      19.456920   19.356862   24.195204 H          1 MOL1         0.0742
      13    C5      20.018418   20.504341   22.453802 C.3        1 MOL1        -0.1880
      14    H7      18.980150   20.710701   22.159959 H          1 MOL1         0.0742
      15    H8      20.316245   21.339827   23.101976 H          1 MOL1         0.0742
      16    C6      20.939811   20.509018   21.208444 C.3        1 MOL1        -0.1856
      17    H9      21.808838   19.857574   21.374647 H          1 MOL1         0.0742
      18    H10     21.340315   21.523042   21.071879 H          1 MOL1         0.0742
      19    C7      20.208571   20.106143   19.908441 C.3        1 MOL1        -0.2871
      20    H11     19.794467   19.093390   19.969687 H          1 MOL1         0.0754
      21    H12     20.898489   20.135144   19.055217 H          1 MOL1         0.0754
      22    H13     19.382496   20.797055   19.695536 H          1 MOL1         0.0754
@<TRIPOS>BOND
    1     1     2    1
    2     1     3    2
    3     1     4    1
    4     4     5    1
    5     4     6    1
    6     4     7    1
    7     7     8    1
    8     7     9    1
    9     7    10    1
   10    10    11    1
   11    10    12    1
   12    10    13    1
   13    13    14    1
   14    13    15    1
   15    13    16    1
   16    16    17    1
   17    16    18    1
   18    16    19    1
   19    19    20    1
   20    19    21    1
   21    19    22    1
@<TRIPOS>SUBSTRUCTURE
       1 MOL1            1 RESIDUE      1      MOL     
@<SCITEGIC>MOL_PROPERTY
VConf Rank
SciTegic.value.IntegerValue
818

@<SCITEGIC>MOL_PROPERTY
Conf_Id
SciTegic.value.IntegerValue
82

@<SCITEGIC>MOL_PROPERTY
Delta U+W
SciTegic.value.DoubleValue
3.438

@<SCITEGIC>MOL_PROPERTY
U+W
SciTegic.value.DoubleValue
-49.721

@<SCITEGIC>MOL_PROPERTY
Grad RMS
SciTegic.value.DoubleValue
0.000000

@<SCITEGIC>MOL_PROPERTY
U
SciTegic.value.DoubleValue
11.773

@<SCITEGIC>MOL_PROPERTY
W
SciTegic.value.DoubleValue
-61.495

@<SCITEGIC>MOL_PROPERTY
W(PB)
SciTegic.value.DoubleValue
-63.749

@<SCITEGIC>MOL_PROPERTY
W(SA)
SciTegic.value.DoubleValue
2.254

@<SCITEGIC>MOL_PROPERTY
Valence
SciTegic.value.DoubleValue
10.419

@<SCITEGIC>MOL_PROPERTY
Coulomb
SciTegic.value.DoubleValue
0.565

@<SCITEGIC>MOL_PROPERTY
VdW
SciTegic.value.DoubleValue
0.789

@<SCITEGIC>MOL_PROPERTY
VdW6
SciTegic.value.DoubleValue
-8.847

@<SCITEGIC>MOL_PROPERTY
VdW12
SciTegic.value.DoubleValue
9.636

@<SCITEGIC>MOL_PROPERTY
Bond
SciTegic.value.DoubleValue
0.200

@<SCITEGIC>MOL_PROPERTY
Angle
SciTegic.value.DoubleValue
3.187

@<SCITEGIC>MOL_PROPERTY
Pdih
SciTegic.value.DoubleValue
7.032

@<SCITEGIC>MOL_PROPERTY
Idih
SciTegic.value.DoubleValue
0.001

@<SCITEGIC>MOL_PROPERTY
Tether
SciTegic.value.DoubleValue
0.000

@<TRIPOS>MOLECULE
guest-s21_confgen4.mol2 : confsearch ligand conformer 819
          22          21           1
SMALL
USER_CHARGES
 
@<TRIPOS>ATOM
       1    C1      18.993170   17.015803   24.969721 C.2        1 MOL1         0.6145
       2    O1      19.130410   15.848834   24.659363 O.co2      1 MOL1        -0.6735
       3    O2      19.356570   17.475228   26.034526 O.co2      1 MOL1        -0.6735
       4    C2      18.305904   17.948390   23.976069 C.3        1 MOL1        -0.1985
       5    H1      17.955456   18.837625   24.513938 H          1 MOL1         0.0740
       6    H2      17.413984   17.430071   23.604833 H          1 MOL1         0.0740
       7    C3      19.198025   18.364615   22.777500 C.3        1 MOL1        -0.1882
       8    H3      19.580015   17.464318   22.276672 H          1 MOL1         0.0742
       9    H4      18.572683   18.897158   22.050003 H          1 MOL1         0.0742
      10    C4      20.376584   19.272227   23.199780 C.3        1 MOL1        -0.1880
      11    H5      20.936929   18.783116   24.008251 H          1 MOL1         0.0742
      12    H6      19.983892   20.207467   23.621467 H          1 MOL1         0.0742
      13    C5      21.369185   19.599451   22.056017 C.3        1 MOL1        -0.1880
      14    H7      22.184131   20.196528   22.487558 H          1 MOL1         0.0742
      15    H8      21.838267   18.676280   21.689078 H          1 MOL1         0.0742
      16    C6      20.760076   20.397682   20.876309 C.3        1 MOL1        -0.1856
      17    H9      21.513067   21.107439   20.506785 H          1 MOL1         0.0742
      18    H10     19.912998   21.005008   21.223906 H          1 MOL1         0.0742
      19    C7      20.328169   19.502139   19.693734 C.3        1 MOL1        -0.2871
      20    H11     21.185286   18.945876   19.292476 H          1 MOL1         0.0754
      21    H12     19.914379   20.112838   18.880934 H          1 MOL1         0.0754
      22    H13     19.562790   18.775790   19.989567 H          1 MOL1         0.0754
@<TRIPOS>BOND
    1     1     2    1
    2     1     3    2
    3     1     4    1
    4     4     5    1
    5     4     6    1
    6     4     7    1
    7     7     8    1
    8     7     9    1
    9     7    10    1
   10    10    11    1
   11    10    12    1
   12    10    13    1
   13    13    14    1
   14    13    15    1
   15    13    16    1
   16    16    17    1
   17    16    18    1
   18    16    19    1
   19    19    20    1
   20    19    21    1
   21    19    22    1
@<TRIPOS>SUBSTRUCTURE
       1 MOL1            1 RESIDUE      1      MOL     
@<SCITEGIC>MOL_PROPERTY
VConf Rank
SciTegic.value.IntegerValue
819

@<SCITEGIC>MOL_PROPERTY
Conf_Id
SciTegic.value.IntegerValue
94

@<SCITEGIC>MOL_PROPERTY
Delta U+W
SciTegic.value.DoubleValue
3.471

@<SCITEGIC>MOL_PROPERTY
U+W
SciTegic.value.DoubleValue
-49.688

@<SCITEGIC>MOL_PROPERTY
Grad RMS
SciTegic.value.DoubleValue
0.000000

@<SCITEGIC>MOL_PROPERTY
U
SciTegic.value.DoubleValue
11.773

@<SCITEGIC>MOL_PROPERTY
W
SciTegic.value.DoubleValue
-61.461

@<SCITEGIC>MOL_PROPERTY
W(PB)
SciTegic.value.DoubleValue
-63.710

@<SCITEGIC>MOL_PROPERTY
W(SA)
SciTegic.value.DoubleValue
2.248

@<SCITEGIC>MOL_PROPERTY
Valence
SciTegic.value.DoubleValue
10.419

@<SCITEGIC>MOL_PROPERTY
Coulomb
SciTegic.value.DoubleValue
0.566

@<SCITEGIC>MOL_PROPERTY
VdW
SciTegic.value.DoubleValue
0.789

@<SCITEGIC>MOL_PROPERTY
VdW6
SciTegic.value.DoubleValue
-8.847

@<SCITEGIC>MOL_PROPERTY
VdW12
SciTegic.value.DoubleValue
9.636

@<SCITEGIC>MOL_PROPERTY
Bond
SciTegic.value.DoubleValue
0.200

@<SCITEGIC>MOL_PROPERTY
Angle
SciTegic.value.DoubleValue
3.187

@<SCITEGIC>MOL_PROPERTY
Pdih
SciTegic.value.DoubleValue
7.032

@<SCITEGIC>MOL_PROPERTY
Idih
SciTegic.value.DoubleValue
0.001

@<SCITEGIC>MOL_PROPERTY
Tether
SciTegic.value.DoubleValue
0.000

@<TRIPOS>MOLECULE
guest-s21_confgen4.mol2 : confsearch ligand conformer 820
          22          21           1
SMALL
USER_CHARGES
 
@<TRIPOS>ATOM
       1    C1      19.071511   20.541507   25.258077 C.2        1 MOL1         0.6145
       2    O1      18.686859   20.095638   26.321065 O.co2      1 MOL1        -0.6735
       3    O2      18.805827   21.659084   24.861836 O.co2      1 MOL1        -0.6735
       4    C2      19.917808   19.642142   24.364290 C.3        1 MOL1        -0.1985
       5    H1      20.518666   18.989220   25.008413 H          1 MOL1         0.0740
       6    H2      20.613245   20.282183   23.809539 H          1 MOL1         0.0740
       7    C3      19.064296   18.791908   23.388035 C.3        1 MOL1        -0.1882
       8    H3      18.323605   18.225016   23.968645 H          1 MOL1         0.0742
       9    H4      18.489612   19.455702   22.728533 H          1 MOL1         0.0742
      10    C4      19.898590   17.795322   22.544717 C.3        1 MOL1        -0.1880
      11    H5      19.217640   17.199617   21.922691 H          1 MOL1         0.0742
      12    H6      20.385526   17.079784   23.221062 H          1 MOL1         0.0742
      13    C5      20.983611   18.440353   21.642590 C.3        1 MOL1        -0.1880
      14    H7      21.755958   18.898715   22.273966 H          1 MOL1         0.0742
      15    H8      21.492546   17.643563   21.083434 H          1 MOL1         0.0742
      16    C6      20.462631   19.498590   20.639275 C.3        1 MOL1        -0.1856
      17    H9      21.317713   19.900955   20.079055 H          1 MOL1         0.0742
      18    H10     20.026003   20.349212   21.179461 H          1 MOL1         0.0742
      19    C7      19.433241   18.933710   19.636744 C.3        1 MOL1        -0.2871
      20    H11     19.843836   18.070864   19.096502 H          1 MOL1         0.0754
      21    H12     19.158147   19.696846   18.897357 H          1 MOL1         0.0754
      22    H13     18.514292   18.616435   20.145493 H          1 MOL1         0.0754
@<TRIPOS>BOND
    1     1     2    1
    2     1     3    2
    3     1     4    1
    4     4     5    1
    5     4     6    1
    6     4     7    1
    7     7     8    1
    8     7     9    1
    9     7    10    1
   10    10    11    1
   11    10    12    1
   12    10    13    1
   13    13    14    1
   14    13    15    1
   15    13    16    1
   16    16    17    1
   17    16    18    1
   18    16    19    1
   19    19    20    1
   20    19    21    1
   21    19    22    1
@<TRIPOS>SUBSTRUCTURE
       1 MOL1            1 RESIDUE      1      MOL     
@<SCITEGIC>MOL_PROPERTY
VConf Rank
SciTegic.value.IntegerValue
820

@<SCITEGIC>MOL_PROPERTY
Conf_Id
SciTegic.value.IntegerValue
56

@<SCITEGIC>MOL_PROPERTY
Delta U+W
SciTegic.value.DoubleValue
0.853

@<SCITEGIC>MOL_PROPERTY
U+W
SciTegic.value.DoubleValue
-52.307

@<SCITEGIC>MOL_PROPERTY
Grad RMS
SciTegic.value.DoubleValue
0.000000

@<SCITEGIC>MOL_PROPERTY
U
SciTegic.value.DoubleValue
8.874

@<SCITEGIC>MOL_PROPERTY
W
SciTegic.value.DoubleValue
-61.181

@<SCITEGIC>MOL_PROPERTY
W(PB)
SciTegic.value.DoubleValue
-63.413

@<SCITEGIC>MOL_PROPERTY
W(SA)
SciTegic.value.DoubleValue
2.232

@<SCITEGIC>MOL_PROPERTY
Valence
SciTegic.value.DoubleValue
8.479

@<SCITEGIC>MOL_PROPERTY
Coulomb
SciTegic.value.DoubleValue
-0.357

@<SCITEGIC>MOL_PROPERTY
VdW
SciTegic.value.DoubleValue
0.753

@<SCITEGIC>MOL_PROPERTY
VdW6
SciTegic.value.DoubleValue
-9.081

@<SCITEGIC>MOL_PROPERTY
VdW12
SciTegic.value.DoubleValue
9.833

@<SCITEGIC>MOL_PROPERTY
Bond
SciTegic.value.DoubleValue
0.221

@<SCITEGIC>MOL_PROPERTY
Angle
SciTegic.value.DoubleValue
3.208

@<SCITEGIC>MOL_PROPERTY
Pdih
SciTegic.value.DoubleValue
5.050

@<SCITEGIC>MOL_PROPERTY
Idih
SciTegic.value.DoubleValue
0.000

@<SCITEGIC>MOL_PROPERTY
Tether
SciTegic.value.DoubleValue
0.000

@<TRIPOS>MOLECULE
guest-s21_confgen4.mol2 : confsearch ligand conformer 821
          22          21           1
SMALL
USER_CHARGES
 
@<TRIPOS>ATOM
       1    C1      21.056681   15.180717   21.310259 C.2        1 MOL1         0.6145
       2    O1      21.070249   14.852537   22.480950 O.co2      1 MOL1        -0.6735
       3    O2      21.358195   14.426961   20.406454 O.co2      1 MOL1        -0.6735
       4    C2      20.645432   16.602780   20.925375 C.3        1 MOL1        -0.1985
       5    H1      19.797540   16.522422   20.235019 H          1 MOL1         0.0740
       6    H2      21.477067   17.042618   20.362441 H          1 MOL1         0.0740
       7    C3      20.268763   17.527944   22.113062 C.3        1 MOL1        -0.1882
       8    H3      19.439259   17.078437   22.676404 H          1 MOL1         0.0742
       9    H4      21.120358   17.599262   22.803850 H          1 MOL1         0.0742
      10    C4      19.867303   18.940565   21.635732 C.3        1 MOL1        -0.1880
      11    H5      19.015839   18.866701   20.945309 H          1 MOL1         0.0742
      12    H6      20.698030   19.387830   21.072726 H          1 MOL1         0.0742
      13    C5      19.493117   19.859207   22.818690 C.3        1 MOL1        -0.1880
      14    H7      18.662435   19.412314   23.382055 H          1 MOL1         0.0742
      15    H8      20.344322   19.933404   23.509393 H          1 MOL1         0.0742
      16    C6      19.091765   21.271005   22.342408 C.3        1 MOL1        -0.1856
      17    H9      18.239125   21.200962   21.652789 H          1 MOL1         0.0742
      18    H10     19.921092   21.722057   21.780052 H          1 MOL1         0.0742
      19    C7      18.718916   22.185252   23.526668 C.3        1 MOL1        -0.2871
      20    H11     17.870504   21.773468   24.088841 H          1 MOL1         0.0754
      21    H12     18.436332   23.184312   23.170131 H          1 MOL1         0.0754
      22    H13     19.565085   22.298522   24.217013 H          1 MOL1         0.0754
@<TRIPOS>BOND
    1     1     2    1
    2     1     3    2
    3     1     4    1
    4     4     5    1
    5     4     6    1
    6     4     7    1
    7     7     8    1
    8     7     9    1
    9     7    10    1
   10    10    11    1
   11    10    12    1
   12    10    13    1
   13    13    14    1
   14    13    15    1
   15    13    16    1
   16    16    17    1
   17    16    18    1
   18    16    19    1
   19    19    20    1
   20    19    21    1
   21    19    22    1
@<TRIPOS>SUBSTRUCTURE
       1 MOL1            1 RESIDUE      1      MOL     
@<SCITEGIC>MOL_PROPERTY
VConf Rank
SciTegic.value.IntegerValue
821

@<SCITEGIC>MOL_PROPERTY
Conf_Id
SciTegic.value.IntegerValue
0

@<SCITEGIC>MOL_PROPERTY
Delta U+W
SciTegic.value.DoubleValue
0.000

@<SCITEGIC>MOL_PROPERTY
U+W
SciTegic.value.DoubleValue
-53.159

@<SCITEGIC>MOL_PROPERTY
Grad RMS
SciTegic.value.DoubleValue
0.000000

@<SCITEGIC>MOL_PROPERTY
U
SciTegic.value.DoubleValue
6.763

@<SCITEGIC>MOL_PROPERTY
W
SciTegic.value.DoubleValue
-59.922

@<SCITEGIC>MOL_PROPERTY
W(PB)
SciTegic.value.DoubleValue
-62.256

@<SCITEGIC>MOL_PROPERTY
W(SA)
SciTegic.value.DoubleValue
2.334

@<SCITEGIC>MOL_PROPERTY
Valence
SciTegic.value.DoubleValue
7.600

@<SCITEGIC>MOL_PROPERTY
Coulomb
SciTegic.value.DoubleValue
-2.139

@<SCITEGIC>MOL_PROPERTY
VdW
SciTegic.value.DoubleValue
1.302

@<SCITEGIC>MOL_PROPERTY
VdW6
SciTegic.value.DoubleValue
-6.786

@<SCITEGIC>MOL_PROPERTY
VdW12
SciTegic.value.DoubleValue
8.088

@<SCITEGIC>MOL_PROPERTY
Bond
SciTegic.value.DoubleValue
0.134

@<SCITEGIC>MOL_PROPERTY
Angle
SciTegic.value.DoubleValue
2.720

@<SCITEGIC>MOL_PROPERTY
Pdih
SciTegic.value.DoubleValue
4.746

@<SCITEGIC>MOL_PROPERTY
Idih
SciTegic.value.DoubleValue
0.000

@<SCITEGIC>MOL_PROPERTY
Tether
SciTegic.value.DoubleValue
0.000

@<TRIPOS>MOLECULE
guest-s21_confgen4.mol2 : confsearch ligand conformer 822
          22          21           1
SMALL
USER_CHARGES
 
@<TRIPOS>ATOM
       1    C1      16.376892   18.499421   20.106369 C.2        1 MOL1         0.6145
       2    O1      16.460291   18.778620   18.926740 O.co2      1 MOL1        -0.6735
       3    O2      15.369184   18.659188   20.766240 O.co2      1 MOL1        -0.6735
       4    C2      17.611811   17.938472   20.802446 C.3        1 MOL1        -0.1985
       5    H1      18.176433   17.347813   20.071017 H          1 MOL1         0.0740
       6    H2      17.277121   17.249077   21.586906 H          1 MOL1         0.0740
       7    C3      18.513593   19.041466   21.409277 C.3        1 MOL1        -0.1882
       8    H3      18.829384   19.730500   20.613613 H          1 MOL1         0.0742
       9    H4      17.930101   19.631765   22.129456 H          1 MOL1         0.0742
      10    C4      19.756193   18.448285   22.107817 C.3        1 MOL1        -0.1880
      11    H5      20.336549   17.857850   21.385497 H          1 MOL1         0.0742
      12    H6      19.437032   17.759051   22.901710 H          1 MOL1         0.0742
      13    C5      20.653180   19.550081   22.711765 C.3        1 MOL1        -0.1880
      14    H7      20.972546   20.239539   21.918178 H          1 MOL1         0.0742
      15    H8      20.073181   20.140760   23.434141 H          1 MOL1         0.0742
      16    C6      21.895306   18.958021   23.410090 C.3        1 MOL1        -0.1856
      17    H9      22.479196   18.368015   22.690061 H          1 MOL1         0.0742
      18    H10     21.579835   18.269219   24.206021 H          1 MOL1         0.0742
      19    C7      22.788437   20.061441   24.011856 C.3        1 MOL1        -0.2871
      20    H11     22.238335   20.647849   24.759467 H          1 MOL1         0.0754
      21    H12     23.144342   20.747493   23.232068 H          1 MOL1         0.0754
      22    H13     23.666336   19.623056   24.503999 H          1 MOL1         0.0754
@<TRIPOS>BOND
    1     1     2    1
    2     1     3    2
    3     1     4    1
    4     4     5    1
    5     4     6    1
    6     4     7    1
    7     7     8    1
    8     7     9    1
    9     7    10    1
   10    10    11    1
   11    10    12    1
   12    10    13    1
   13    13    14    1
   14    13    15    1
   15    13    16    1
   16    16    17    1
   17    16    18    1
   18    16    19    1
   19    19    20    1
   20    19    21    1
   21    19    22    1
@<TRIPOS>SUBSTRUCTURE
       1 MOL1            1 RESIDUE      1      MOL     
@<SCITEGIC>MOL_PROPERTY
VConf Rank
SciTegic.value.IntegerValue
822

@<SCITEGIC>MOL_PROPERTY
Conf_Id
SciTegic.value.IntegerValue
10

@<SCITEGIC>MOL_PROPERTY
Delta U+W
SciTegic.value.DoubleValue
-1.291

@<SCITEGIC>MOL_PROPERTY
U+W
SciTegic.value.DoubleValue
-54.451

@<SCITEGIC>MOL_PROPERTY
Grad RMS
SciTegic.value.DoubleValue
0.000000

@<SCITEGIC>MOL_PROPERTY
U
SciTegic.value.DoubleValue
5.779

@<SCITEGIC>MOL_PROPERTY
W
SciTegic.value.DoubleValue
-60.230

@<SCITEGIC>MOL_PROPERTY
W(PB)
SciTegic.value.DoubleValue
-62.557

@<SCITEGIC>MOL_PROPERTY
W(SA)
SciTegic.value.DoubleValue
2.328

@<SCITEGIC>MOL_PROPERTY
Valence
SciTegic.value.DoubleValue
7.101

@<SCITEGIC>MOL_PROPERTY
Coulomb
SciTegic.value.DoubleValue
-2.079

@<SCITEGIC>MOL_PROPERTY
VdW
SciTegic.value.DoubleValue
0.757

@<SCITEGIC>MOL_PROPERTY
VdW6
SciTegic.value.DoubleValue
-6.496

@<SCITEGIC>MOL_PROPERTY
VdW12
SciTegic.value.DoubleValue
7.253

@<SCITEGIC>MOL_PROPERTY
Bond
SciTegic.value.DoubleValue
0.100

@<SCITEGIC>MOL_PROPERTY
Angle
SciTegic.value.DoubleValue
2.262

@<SCITEGIC>MOL_PROPERTY
Pdih
SciTegic.value.DoubleValue
4.738

@<SCITEGIC>MOL_PROPERTY
Idih
SciTegic.value.DoubleValue
0.001

@<SCITEGIC>MOL_PROPERTY
Tether
SciTegic.value.DoubleValue
0.000

@<TRIPOS>MOLECULE
guest-s21_confgen4.mol2 : confsearch ligand conformer 823
          22          21           1
SMALL
USER_CHARGES
 
@<TRIPOS>ATOM
       1    C1      21.268497   15.392635   21.412407 C.2        1 MOL1         0.6145
       2    O1      21.738527   15.314461   20.294635 O.co2      1 MOL1        -0.6735
       3    O2      21.619151   14.691145   22.340529 O.co2      1 MOL1        -0.6735
       4    C2      20.194205   16.443271   21.669830 C.3        1 MOL1        -0.1985
       5    H1      19.512230   16.053014   22.434850 H          1 MOL1         0.0740
       6    H2      19.611572   16.567542   20.749095 H          1 MOL1         0.0740
       7    C3      20.779339   17.804604   22.119877 C.3        1 MOL1        -0.1882
       8    H3      21.370515   17.660404   23.034880 H          1 MOL1         0.0742
       9    H4      21.469276   18.175734   21.349292 H          1 MOL1         0.0742
      10    C4      19.672130   18.850515   22.373855 C.3        1 MOL1        -0.1880
      11    H5      18.985262   18.477784   23.145955 H          1 MOL1         0.0742
      12    H6      19.083698   18.981479   21.456379 H          1 MOL1         0.0742
      13    C5      20.261542   20.208625   22.819264 C.3        1 MOL1        -0.1880
      14    H7      20.904050   20.049119   23.696005 H          1 MOL1         0.0742
      15    H8      20.909481   20.608655   22.027377 H          1 MOL1         0.0742
      16    C6      19.184310   21.256287   23.184346 C.3        1 MOL1        -0.1856
      17    H9      19.682012   22.143521   23.599491 H          1 MOL1         0.0742
      18    H10     18.538032   20.862073   23.980731 H          1 MOL1         0.0742
      19    C7      18.319822   21.689301   21.980449 C.3        1 MOL1        -0.2871
      20    H11     17.633402   22.495098   22.271036 H          1 MOL1         0.0754
      21    H12     17.713204   20.856862   21.602610 H          1 MOL1         0.0754
      22    H13     18.947164   22.059517   21.159159 H          1 MOL1         0.0754
@<TRIPOS>BOND
    1     1     2    1
    2     1     3    2
    3     1     4    1
    4     4     5    1
    5     4     6    1
    6     4     7    1
    7     7     8    1
    8     7     9    1
    9     7    10    1
   10    10    11    1
   11    10    12    1
   12    10    13    1
   13    13    14    1
   14    13    15    1
   15    13    16    1
   16    16    17    1
   17    16    18    1
   18    16    19    1
   19    19    20    1
   20    19    21    1
   21    19    22    1
@<TRIPOS>SUBSTRUCTURE
       1 MOL1            1 RESIDUE      1      MOL     
@<SCITEGIC>MOL_PROPERTY
VConf Rank
SciTegic.value.IntegerValue
823

@<SCITEGIC>MOL_PROPERTY
Conf_Id
SciTegic.value.IntegerValue
37

@<SCITEGIC>MOL_PROPERTY
Delta U+W
SciTegic.value.DoubleValue
-0.345

@<SCITEGIC>MOL_PROPERTY
U+W
SciTegic.value.DoubleValue
-53.504

@<SCITEGIC>MOL_PROPERTY
Grad RMS
SciTegic.value.DoubleValue
0.000000

@<SCITEGIC>MOL_PROPERTY
U
SciTegic.value.DoubleValue
6.751

@<SCITEGIC>MOL_PROPERTY
W
SciTegic.value.DoubleValue
-60.255

@<SCITEGIC>MOL_PROPERTY
W(PB)
SciTegic.value.DoubleValue
-62.592

@<SCITEGIC>MOL_PROPERTY
W(SA)
SciTegic.value.DoubleValue
2.336

@<SCITEGIC>MOL_PROPERTY
Valence
SciTegic.value.DoubleValue
7.602

@<SCITEGIC>MOL_PROPERTY
Coulomb
SciTegic.value.DoubleValue
-1.744

@<SCITEGIC>MOL_PROPERTY
VdW
SciTegic.value.DoubleValue
0.894

@<SCITEGIC>MOL_PROPERTY
VdW6
SciTegic.value.DoubleValue
-7.110

@<SCITEGIC>MOL_PROPERTY
VdW12
SciTegic.value.DoubleValue
8.004

@<SCITEGIC>MOL_PROPERTY
Bond
SciTegic.value.DoubleValue
0.131

@<SCITEGIC>MOL_PROPERTY
Angle
SciTegic.value.DoubleValue
2.489

@<SCITEGIC>MOL_PROPERTY
Pdih
SciTegic.value.DoubleValue
4.982

@<SCITEGIC>MOL_PROPERTY
Idih
SciTegic.value.DoubleValue
0.001

@<SCITEGIC>MOL_PROPERTY
Tether
SciTegic.value.DoubleValue
0.000

@<TRIPOS>MOLECULE
guest-s21_confgen4.mol2 : confsearch ligand conformer 824
          22          21           1
SMALL
USER_CHARGES
 
@<TRIPOS>ATOM
       1    C1      16.898049   16.565361   21.316502 C.2        1 MOL1         0.6145
       2    O1      16.769107   15.671427   22.129341 O.co2      1 MOL1        -0.6735
       3    O2      16.571685   16.466749   20.150217 O.co2      1 MOL1        -0.6735
       4    C2      17.523897   17.875742   21.780642 C.3        1 MOL1        -0.1985
       5    H1      17.242482   18.035411   22.828481 H          1 MOL1         0.0740
       6    H2      17.079118   18.691165   21.197631 H          1 MOL1         0.0740
       7    C3      19.065332   17.892122   21.632766 C.3        1 MOL1        -0.1882
       8    H3      19.494393   17.062723   22.212036 H          1 MOL1         0.0742
       9    H4      19.330480   17.717417   20.580774 H          1 MOL1         0.0742
      10    C4      19.674383   19.228777   22.108957 C.3        1 MOL1        -0.1880
      11    H5      19.397549   19.396799   23.157909 H          1 MOL1         0.0742
      12    H6      19.245356   20.055698   21.526725 H          1 MOL1         0.0742
      13    C5      21.213487   19.238601   21.962926 C.3        1 MOL1        -0.1880
      14    H7      21.649463   18.444452   22.584367 H          1 MOL1         0.0742
      15    H8      21.475400   18.999166   20.923210 H          1 MOL1         0.0742
      16    C6      21.857366   20.595472   22.331208 C.3        1 MOL1        -0.1856
      17    H9      21.428306   21.391478   21.707035 H          1 MOL1         0.0742
      18    H10     22.928295   20.554638   22.088970 H          1 MOL1         0.0742
      19    C7      21.699009   20.962566   23.822642 C.3        1 MOL1        -0.2871
      20    H11     22.094277   20.166754   24.467299 H          1 MOL1         0.0754
      21    H12     20.646657   21.128013   24.085105 H          1 MOL1         0.0754
      22    H13     22.247137   21.885818   24.050857 H          1 MOL1         0.0754
@<TRIPOS>BOND
    1     1     2    1
    2     1     3    2
    3     1     4    1
    4     4     5    1
    5     4     6    1
    6     4     7    1
    7     7     8    1
    8     7     9    1
    9     7    10    1
   10    10    11    1
   11    10    12    1
   12    10    13    1
   13    13    14    1
   14    13    15    1
   15    13    16    1
   16    16    17    1
   17    16    18    1
   18    16    19    1
   19    19    20    1
   20    19    21    1
   21    19    22    1
@<TRIPOS>SUBSTRUCTURE
       1 MOL1            1 RESIDUE      1      MOL     
@<SCITEGIC>MOL_PROPERTY
VConf Rank
SciTegic.value.IntegerValue
824

@<SCITEGIC>MOL_PROPERTY
Conf_Id
SciTegic.value.IntegerValue
38

@<SCITEGIC>MOL_PROPERTY
Delta U+W
SciTegic.value.DoubleValue
-0.439

@<SCITEGIC>MOL_PROPERTY
U+W
SciTegic.value.DoubleValue
-53.598

@<SCITEGIC>MOL_PROPERTY
Grad RMS
SciTegic.value.DoubleValue
0.000000

@<SCITEGIC>MOL_PROPERTY
U
SciTegic.value.DoubleValue
6.751

@<SCITEGIC>MOL_PROPERTY
W
SciTegic.value.DoubleValue
-60.350

@<SCITEGIC>MOL_PROPERTY
W(PB)
SciTegic.value.DoubleValue
-62.659

@<SCITEGIC>MOL_PROPERTY
W(SA)
SciTegic.value.DoubleValue
2.309

@<SCITEGIC>MOL_PROPERTY
Valence
SciTegic.value.DoubleValue
7.602

@<SCITEGIC>MOL_PROPERTY
Coulomb
SciTegic.value.DoubleValue
-1.744

@<SCITEGIC>MOL_PROPERTY
VdW
SciTegic.value.DoubleValue
0.893

@<SCITEGIC>MOL_PROPERTY
VdW6
SciTegic.value.DoubleValue
-7.110

@<SCITEGIC>MOL_PROPERTY
VdW12
SciTegic.value.DoubleValue
8.004

@<SCITEGIC>MOL_PROPERTY
Bond
SciTegic.value.DoubleValue
0.131

@<SCITEGIC>MOL_PROPERTY
Angle
SciTegic.value.DoubleValue
2.489

@<SCITEGIC>MOL_PROPERTY
Pdih
SciTegic.value.DoubleValue
4.981

@<SCITEGIC>MOL_PROPERTY
Idih
SciTegic.value.DoubleValue
0.001

@<SCITEGIC>MOL_PROPERTY
Tether
SciTegic.value.DoubleValue
0.000

@<TRIPOS>MOLECULE
guest-s21_confgen4.mol2 : confsearch ligand conformer 825
          22          21           1
SMALL
USER_CHARGES
 
@<TRIPOS>ATOM
       1    C1      22.905819   21.238358   22.444647 C.2        1 MOL1         0.6145
       2    O1      23.879742   20.982996   23.124959 O.co2      1 MOL1        -0.6735
       3    O2      22.631187   22.356407   22.055963 O.co2      1 MOL1        -0.6735
       4    C2      21.964527   20.096621   22.077639 C.3        1 MOL1        -0.1985
       5    H1      22.560781   19.181091   21.984351 H          1 MOL1         0.0740
       6    H2      21.546563   20.315256   21.088717 H          1 MOL1         0.0740
       7    C3      20.832923   19.894367   23.118877 C.3        1 MOL1        -0.1882
       8    H3      21.287320   19.775520   24.112278 H          1 MOL1         0.0742
       9    H4      20.212703   20.799999   23.168406 H          1 MOL1         0.0742
      10    C4      19.939552   18.663349   22.833916 C.3        1 MOL1        -0.1880
      11    H5      19.269428   18.524543   23.691817 H          1 MOL1         0.0742
      12    H6      20.563601   17.761154   22.776693 H          1 MOL1         0.0742
      13    C5      19.098097   18.799823   21.541109 C.3        1 MOL1        -0.1880
      14    H7      18.475431   19.703031   21.597728 H          1 MOL1         0.0742
      15    H8      19.767066   18.935643   20.681974 H          1 MOL1         0.0742
      16    C6      18.202096   17.571103   21.259074 C.3        1 MOL1        -0.1856
      17    H9      18.819975   16.663686   21.213115 H          1 MOL1         0.0742
      18    H10     17.748651   17.687835   20.265089 H          1 MOL1         0.0742
      19    C7      17.074993   17.381325   22.297476 C.3        1 MOL1        -0.2871
      20    H11     17.478250   17.139432   23.288584 H          1 MOL1         0.0754
      21    H12     16.413554   16.557720   21.998992 H          1 MOL1         0.0754
      22    H13     16.464700   18.289579   22.385470 H          1 MOL1         0.0754
@<TRIPOS>BOND
    1     1     2    1
    2     1     3    2
    3     1     4    1
    4     4     5    1
    5     4     6    1
    6     4     7    1
    7     7     8    1
    8     7     9    1
    9     7    10    1
   10    10    11    1
   11    10    12    1
   12    10    13    1
   13    13    14    1
   14    13    15    1
   15    13    16    1
   16    16    17    1
   17    16    18    1
   18    16    19    1
   19    19    20    1
   20    19    21    1
   21    19    22    1
@<TRIPOS>SUBSTRUCTURE
       1 MOL1            1 RESIDUE      1      MOL     
@<SCITEGIC>MOL_PROPERTY
VConf Rank
SciTegic.value.IntegerValue
825

@<SCITEGIC>MOL_PROPERTY
Conf_Id
SciTegic.value.IntegerValue
60

@<SCITEGIC>MOL_PROPERTY
Delta U+W
SciTegic.value.DoubleValue
0.386

@<SCITEGIC>MOL_PROPERTY
U+W
SciTegic.value.DoubleValue
-52.773

@<SCITEGIC>MOL_PROPERTY
Grad RMS
SciTegic.value.DoubleValue
0.000000

@<SCITEGIC>MOL_PROPERTY
U
SciTegic.value.DoubleValue
7.689

@<SCITEGIC>MOL_PROPERTY
W
SciTegic.value.DoubleValue
-60.463

@<SCITEGIC>MOL_PROPERTY
W(PB)
SciTegic.value.DoubleValue
-62.772

@<SCITEGIC>MOL_PROPERTY
W(SA)
SciTegic.value.DoubleValue
2.309

@<SCITEGIC>MOL_PROPERTY
Valence
SciTegic.value.DoubleValue
8.197

@<SCITEGIC>MOL_PROPERTY
Coulomb
SciTegic.value.DoubleValue
-1.561

@<SCITEGIC>MOL_PROPERTY
VdW
SciTegic.value.DoubleValue
1.053

@<SCITEGIC>MOL_PROPERTY
VdW6
SciTegic.value.DoubleValue
-7.737

@<SCITEGIC>MOL_PROPERTY
VdW12
SciTegic.value.DoubleValue
8.790

@<SCITEGIC>MOL_PROPERTY
Bond
SciTegic.value.DoubleValue
0.181

@<SCITEGIC>MOL_PROPERTY
Angle
SciTegic.value.DoubleValue
2.780

@<SCITEGIC>MOL_PROPERTY
Pdih
SciTegic.value.DoubleValue
5.235

@<SCITEGIC>MOL_PROPERTY
Idih
SciTegic.value.DoubleValue
0.001

@<SCITEGIC>MOL_PROPERTY
Tether
SciTegic.value.DoubleValue
0.000

@<TRIPOS>MOLECULE
guest-s21_confgen4.mol2 : confsearch ligand conformer 826
          22          21           1
SMALL
USER_CHARGES
 
@<TRIPOS>ATOM
       1    C1      21.311226   21.492146   19.877066 C.2        1 MOL1         0.6145
       2    O1      21.591993   22.505721   20.485646 O.co2      1 MOL1        -0.6735
       3    O2      21.182128   21.446405   18.669671 O.co2      1 MOL1        -0.6735
       4    C2      21.086295   20.212198   20.674202 C.3        1 MOL1        -0.1985
       5    H1      21.754131   20.239605   21.542365 H          1 MOL1         0.0740
       6    H2      21.396275   19.364773   20.051145 H          1 MOL1         0.0740
       7    C3      19.611774   20.036043   21.121830 C.3        1 MOL1        -0.1882
       8    H3      19.327314   20.864768   21.784849 H          1 MOL1         0.0742
       9    H4      18.964979   20.111569   20.236732 H          1 MOL1         0.0742
      10    C4      19.332908   18.685263   21.823504 C.3        1 MOL1        -0.1880
      11    H5      19.625970   17.859242   21.161331 H          1 MOL1         0.0742
      12    H6      18.249013   18.596792   21.970720 H          1 MOL1         0.0742
      13    C5      20.050529   18.541102   23.188148 C.3        1 MOL1        -0.1880
      14    H7      21.134720   18.626218   23.041984 H          1 MOL1         0.0742
      15    H8      19.758835   19.368238   23.849557 H          1 MOL1         0.0742
      16    C6      19.767877   17.192760   23.891138 C.3        1 MOL1        -0.1856
      17    H9      20.415657   17.115041   24.775212 H          1 MOL1         0.0742
      18    H10     20.047666   16.362474   23.228086 H          1 MOL1         0.0742
      19    C7      18.298965   17.029277   24.338603 C.3        1 MOL1        -0.2871
      20    H11     17.986509   17.867229   24.975260 H          1 MOL1         0.0754
      21    H12     18.174527   16.103068   24.914425 H          1 MOL1         0.0754
      22    H13     17.620161   16.977950   23.478362 H          1 MOL1         0.0754
@<TRIPOS>BOND
    1     1     2    1
    2     1     3    2
    3     1     4    1
    4     4     5    1
    5     4     6    1
    6     4     7    1
    7     7     8    1
    8     7     9    1
    9     7    10    1
   10    10    11    1
   11    10    12    1
   12    10    13    1
   13    13    14    1
   14    13    15    1
   15    13    16    1
   16    16    17    1
   17    16    18    1
   18    16    19    1
   19    19    20    1
   20    19    21    1
   21    19    22    1
@<TRIPOS>SUBSTRUCTURE
       1 MOL1            1 RESIDUE      1      MOL     
@<SCITEGIC>MOL_PROPERTY
VConf Rank
SciTegic.value.IntegerValue
826

@<SCITEGIC>MOL_PROPERTY
Conf_Id
SciTegic.value.IntegerValue
28

@<SCITEGIC>MOL_PROPERTY
Delta U+W
SciTegic.value.DoubleValue
0.351

@<SCITEGIC>MOL_PROPERTY
U+W
SciTegic.value.DoubleValue
-52.808

@<SCITEGIC>MOL_PROPERTY
Grad RMS
SciTegic.value.DoubleValue
0.000000

@<SCITEGIC>MOL_PROPERTY
U
SciTegic.value.DoubleValue
7.689

@<SCITEGIC>MOL_PROPERTY
W
SciTegic.value.DoubleValue
-60.498

@<SCITEGIC>MOL_PROPERTY
W(PB)
SciTegic.value.DoubleValue
-62.768

@<SCITEGIC>MOL_PROPERTY
W(SA)
SciTegic.value.DoubleValue
2.270

@<SCITEGIC>MOL_PROPERTY
Valence
SciTegic.value.DoubleValue
8.197

@<SCITEGIC>MOL_PROPERTY
Coulomb
SciTegic.value.DoubleValue
-1.561

@<SCITEGIC>MOL_PROPERTY
VdW
SciTegic.value.DoubleValue
1.053

@<SCITEGIC>MOL_PROPERTY
VdW6
SciTegic.value.DoubleValue
-7.737

@<SCITEGIC>MOL_PROPERTY
VdW12
SciTegic.value.DoubleValue
8.791

@<SCITEGIC>MOL_PROPERTY
Bond
SciTegic.value.DoubleValue
0.181

@<SCITEGIC>MOL_PROPERTY
Angle
SciTegic.value.DoubleValue
2.780

@<SCITEGIC>MOL_PROPERTY
Pdih
SciTegic.value.DoubleValue
5.235

@<SCITEGIC>MOL_PROPERTY
Idih
SciTegic.value.DoubleValue
0.001

@<SCITEGIC>MOL_PROPERTY
Tether
SciTegic.value.DoubleValue
0.000

@<TRIPOS>MOLECULE
guest-s21_confgen4.mol2 : confsearch ligand conformer 827
          22          21           1
SMALL
USER_CHARGES
 
@<TRIPOS>ATOM
       1    C1      20.368541   22.548966   22.876833 C.2        1 MOL1         0.6145
       2    O1      20.509135   23.256359   21.898927 O.co2      1 MOL1        -0.6735
       3    O2      19.679368   22.849468   23.831398 O.co2      1 MOL1        -0.6735
       4    C2      21.080396   21.200964   22.898624 C.3        1 MOL1        -0.1985
       5    H1      21.337380   20.968049   23.938989 H          1 MOL1         0.0740
       6    H2      22.022602   21.304538   22.347138 H          1 MOL1         0.0740
       7    C3      20.227178   20.060206   22.291191 C.3        1 MOL1        -0.1882
       8    H3      19.282582   19.989832   22.846397 H          1 MOL1         0.0742
       9    H4      19.970833   20.312485   21.252948 H          1 MOL1         0.0742
      10    C4      20.970718   18.704969   22.330453 C.3        1 MOL1        -0.1880
      11    H5      21.180450   18.427123   23.372472 H          1 MOL1         0.0742
      12    H6      21.945584   18.818342   21.836746 H          1 MOL1         0.0742
      13    C5      20.199674   17.558586   21.634136 C.3        1 MOL1        -0.1880
      14    H7      19.993288   17.834335   20.590920 H          1 MOL1         0.0742
      15    H8      20.849573   16.673549   21.598508 H          1 MOL1         0.0742
      16    C6      18.879681   17.182799   22.344555 C.3        1 MOL1        -0.1856
      17    H9      18.183163   18.031175   22.322617 H          1 MOL1         0.0742
      18    H10     19.078541   16.957989   23.401495 H          1 MOL1         0.0742
      19    C7      18.206903   15.964885   21.679900 C.3        1 MOL1        -0.2871
      20    H11     18.861609   15.084395   21.718038 H          1 MOL1         0.0754
      21    H12     17.971748   16.172215   20.627711 H          1 MOL1         0.0754
      22    H13     17.269950   15.712663   22.193294 H          1 MOL1         0.0754
@<TRIPOS>BOND
    1     1     2    1
    2     1     3    2
    3     1     4    1
    4     4     5    1
    5     4     6    1
    6     4     7    1
    7     7     8    1
    8     7     9    1
    9     7    10    1
   10    10    11    1
   11    10    12    1
   12    10    13    1
   13    13    14    1
   14    13    15    1
   15    13    16    1
   16    16    17    1
   17    16    18    1
   18    16    19    1
   19    19    20    1
   20    19    21    1
   21    19    22    1
@<TRIPOS>SUBSTRUCTURE
       1 MOL1            1 RESIDUE      1      MOL     
@<SCITEGIC>MOL_PROPERTY
VConf Rank
SciTegic.value.IntegerValue
827

@<SCITEGIC>MOL_PROPERTY
Conf_Id
SciTegic.value.IntegerValue
50

@<SCITEGIC>MOL_PROPERTY
Delta U+W
SciTegic.value.DoubleValue
-0.486

@<SCITEGIC>MOL_PROPERTY
U+W
SciTegic.value.DoubleValue
-53.646

@<SCITEGIC>MOL_PROPERTY
Grad RMS
SciTegic.value.DoubleValue
0.000000

@<SCITEGIC>MOL_PROPERTY
U
SciTegic.value.DoubleValue
7.026

@<SCITEGIC>MOL_PROPERTY
W
SciTegic.value.DoubleValue
-60.672

@<SCITEGIC>MOL_PROPERTY
W(PB)
SciTegic.value.DoubleValue
-62.964

@<SCITEGIC>MOL_PROPERTY
W(SA)
SciTegic.value.DoubleValue
2.292

@<SCITEGIC>MOL_PROPERTY
Valence
SciTegic.value.DoubleValue
7.637

@<SCITEGIC>MOL_PROPERTY
Coulomb
SciTegic.value.DoubleValue
-1.488

@<SCITEGIC>MOL_PROPERTY
VdW
SciTegic.value.DoubleValue
0.877

@<SCITEGIC>MOL_PROPERTY
VdW6
SciTegic.value.DoubleValue
-7.165

@<SCITEGIC>MOL_PROPERTY
VdW12
SciTegic.value.DoubleValue
8.043

@<SCITEGIC>MOL_PROPERTY
Bond
SciTegic.value.DoubleValue
0.134

@<SCITEGIC>MOL_PROPERTY
Angle
SciTegic.value.DoubleValue
2.513

@<SCITEGIC>MOL_PROPERTY
Pdih
SciTegic.value.DoubleValue
4.990

@<SCITEGIC>MOL_PROPERTY
Idih
SciTegic.value.DoubleValue
0.001

@<SCITEGIC>MOL_PROPERTY
Tether
SciTegic.value.DoubleValue
0.000

@<TRIPOS>MOLECULE
guest-s21_confgen4.mol2 : confsearch ligand conformer 828
          22          21           1
SMALL
USER_CHARGES
 
@<TRIPOS>ATOM
       1    C1      19.847445   22.699166   22.892311 C.2        1 MOL1         0.6145
       2    O1      19.470683   23.080383   23.982813 O.co2      1 MOL1        -0.6735
       3    O2      19.567396   23.257944   21.850296 O.co2      1 MOL1        -0.6735
       4    C2      20.701904   21.438275   22.826115 C.3        1 MOL1        -0.1985
       5    H1      21.312186   21.392412   23.736097 H          1 MOL1         0.0740
       6    H2      21.390505   21.537357   21.978376 H          1 MOL1         0.0740
       7    C3      19.858984   20.147235   22.681212 C.3        1 MOL1        -0.1882
       8    H3      19.168789   20.067333   23.532417 H          1 MOL1         0.0742
       9    H4      19.243147   20.225721   21.775645 H          1 MOL1         0.0742
      10    C4      20.750225   18.885504   22.611980 C.3        1 MOL1        -0.1880
      11    H5      21.411695   18.867281   23.488957 H          1 MOL1         0.0742
      12    H6      21.403884   18.941111   21.730715 H          1 MOL1         0.0742
      13    C5      19.946222   17.564156   22.577652 C.3        1 MOL1        -0.1880
      14    H7      20.651546   16.725561   22.656414 H          1 MOL1         0.0742
      15    H8      19.295341   17.506305   23.460794 H          1 MOL1         0.0742
      16    C6      19.101322   17.389652   21.295474 C.3        1 MOL1        -0.1856
      17    H9      19.743274   17.500057   20.410649 H          1 MOL1         0.0742
      18    H10     18.336143   18.174759   21.236583 H          1 MOL1         0.0742
      19    C7      18.409640   16.012028   21.257456 C.3        1 MOL1        -0.2871
      20    H11     17.739529   15.885542   22.117885 H          1 MOL1         0.0754
      21    H12     19.148567   15.200237   21.275874 H          1 MOL1         0.0754
      22    H13     17.811441   15.904738   20.343281 H          1 MOL1         0.0754
@<TRIPOS>BOND
    1     1     2    1
    2     1     3    2
    3     1     4    1
    4     4     5    1
    5     4     6    1
    6     4     7    1
    7     7     8    1
    8     7     9    1
    9     7    10    1
   10    10    11    1
   11    10    12    1
   12    10    13    1
   13    13    14    1
   14    13    15    1
   15    13    16    1
   16    16    17    1
   17    16    18    1
   18    16    19    1
   19    19    20    1
   20    19    21    1
   21    19    22    1
@<TRIPOS>SUBSTRUCTURE
       1 MOL1            1 RESIDUE      1      MOL     
@<SCITEGIC>MOL_PROPERTY
VConf Rank
SciTegic.value.IntegerValue
828

@<SCITEGIC>MOL_PROPERTY
Conf_Id
SciTegic.value.IntegerValue
51

@<SCITEGIC>MOL_PROPERTY
Delta U+W
SciTegic.value.DoubleValue
-0.517

@<SCITEGIC>MOL_PROPERTY
U+W
SciTegic.value.DoubleValue
-53.677

@<SCITEGIC>MOL_PROPERTY
Grad RMS
SciTegic.value.DoubleValue
0.000000

@<SCITEGIC>MOL_PROPERTY
U
SciTegic.value.DoubleValue
7.026

@<SCITEGIC>MOL_PROPERTY
W
SciTegic.value.DoubleValue
-60.703

@<SCITEGIC>MOL_PROPERTY
W(PB)
SciTegic.value.DoubleValue
-63.007

@<SCITEGIC>MOL_PROPERTY
W(SA)
SciTegic.value.DoubleValue
2.304

@<SCITEGIC>MOL_PROPERTY
Valence
SciTegic.value.DoubleValue
7.638

@<SCITEGIC>MOL_PROPERTY
Coulomb
SciTegic.value.DoubleValue
-1.488

@<SCITEGIC>MOL_PROPERTY
VdW
SciTegic.value.DoubleValue
0.877

@<SCITEGIC>MOL_PROPERTY
VdW6
SciTegic.value.DoubleValue
-7.165

@<SCITEGIC>MOL_PROPERTY
VdW12
SciTegic.value.DoubleValue
8.042

@<SCITEGIC>MOL_PROPERTY
Bond
SciTegic.value.DoubleValue
0.134

@<SCITEGIC>MOL_PROPERTY
Angle
SciTegic.value.DoubleValue
2.513

@<SCITEGIC>MOL_PROPERTY
Pdih
SciTegic.value.DoubleValue
4.990

@<SCITEGIC>MOL_PROPERTY
Idih
SciTegic.value.DoubleValue
0.001

@<SCITEGIC>MOL_PROPERTY
Tether
SciTegic.value.DoubleValue
0.000

@<TRIPOS>MOLECULE
guest-s21_confgen4.mol2 : confsearch ligand conformer 829
          22          21           1
SMALL
USER_CHARGES
 
@<TRIPOS>ATOM
       1    C1      23.340468   18.439635   23.081804 C.2        1 MOL1         0.6145
       2    O1      23.587874   17.358085   23.577730 O.co2      1 MOL1        -0.6735
       3    O2      23.801335   18.814418   22.021648 O.co2      1 MOL1        -0.6735
       4    C2      22.415092   19.384823   23.843009 C.3        1 MOL1        -0.1985
       5    H1      22.564503   20.402710   23.462892 H          1 MOL1         0.0740
       6    H2      22.738085   19.386733   24.890728 H          1 MOL1         0.0740
       7    C3      20.915261   18.998468   23.764088 C.3        1 MOL1        -0.1882
       8    H3      20.785754   17.967397   24.121541 H          1 MOL1         0.0742
       9    H4      20.344710   19.643485   24.445974 H          1 MOL1         0.0742
      10    C4      20.341284   19.133228   22.335811 C.3        1 MOL1        -0.1880
      11    H5      20.896179   18.477555   21.650543 H          1 MOL1         0.0742
      12    H6      20.484992   20.162037   21.978159 H          1 MOL1         0.0742
      13    C5      18.840570   18.774230   22.286504 C.3        1 MOL1        -0.1880
      14    H7      18.697693   17.745298   22.644264 H          1 MOL1         0.0742
      15    H8      18.283085   19.430494   22.968843 H          1 MOL1         0.0742
      16    C6      18.266841   18.907824   20.860309 C.3        1 MOL1        -0.1856
      17    H9      18.820986   18.251307   20.175174 H          1 MOL1         0.0742
      18    H10     18.406474   19.936368   20.499667 H          1 MOL1         0.0742
      19    C7      16.768255   18.547923   20.814861 C.3        1 MOL1        -0.2871
      20    H11     16.602897   17.512686   21.140962 H          1 MOL1         0.0754
      21    H12     16.377076   18.648283   19.794081 H          1 MOL1         0.0754
      22    H13     16.185218   19.210438   21.467960 H          1 MOL1         0.0754
@<TRIPOS>BOND
    1     1     2    1
    2     1     3    2
    3     1     4    1
    4     4     5    1
    5     4     6    1
    6     4     7    1
    7     7     8    1
    8     7     9    1
    9     7    10    1
   10    10    11    1
   11    10    12    1
   12    10    13    1
   13    13    14    1
   14    13    15    1
   15    13    16    1
   16    16    17    1
   17    16    18    1
   18    16    19    1
   19    19    20    1
   20    19    21    1
   21    19    22    1
@<TRIPOS>SUBSTRUCTURE
       1 MOL1            1 RESIDUE      1      MOL     
@<SCITEGIC>MOL_PROPERTY
VConf Rank
SciTegic.value.IntegerValue
829

@<SCITEGIC>MOL_PROPERTY
Conf_Id
SciTegic.value.IntegerValue
43

@<SCITEGIC>MOL_PROPERTY
Delta U+W
SciTegic.value.DoubleValue
-0.129

@<SCITEGIC>MOL_PROPERTY
U+W
SciTegic.value.DoubleValue
-53.289

@<SCITEGIC>MOL_PROPERTY
Grad RMS
SciTegic.value.DoubleValue
0.000000

@<SCITEGIC>MOL_PROPERTY
U
SciTegic.value.DoubleValue
7.937

@<SCITEGIC>MOL_PROPERTY
W
SciTegic.value.DoubleValue
-61.225

@<SCITEGIC>MOL_PROPERTY
W(PB)
SciTegic.value.DoubleValue
-63.523

@<SCITEGIC>MOL_PROPERTY
W(SA)
SciTegic.value.DoubleValue
2.297

@<SCITEGIC>MOL_PROPERTY
Valence
SciTegic.value.DoubleValue
7.358

@<SCITEGIC>MOL_PROPERTY
Coulomb
SciTegic.value.DoubleValue
-0.022

@<SCITEGIC>MOL_PROPERTY
VdW
SciTegic.value.DoubleValue
0.601

@<SCITEGIC>MOL_PROPERTY
VdW6
SciTegic.value.DoubleValue
-7.363

@<SCITEGIC>MOL_PROPERTY
VdW12
SciTegic.value.DoubleValue
7.964

@<SCITEGIC>MOL_PROPERTY
Bond
SciTegic.value.DoubleValue
0.121

@<SCITEGIC>MOL_PROPERTY
Angle
SciTegic.value.DoubleValue
2.425

@<SCITEGIC>MOL_PROPERTY
Pdih
SciTegic.value.DoubleValue
4.811

@<SCITEGIC>MOL_PROPERTY
Idih
SciTegic.value.DoubleValue
0.000

@<SCITEGIC>MOL_PROPERTY
Tether
SciTegic.value.DoubleValue
0.000

@<TRIPOS>MOLECULE
guest-s21_confgen4.mol2 : confsearch ligand conformer 830
          22          21           1
SMALL
USER_CHARGES
 
@<TRIPOS>ATOM
       1    C1      22.802608   20.458517   21.650383 C.2        1 MOL1         0.6145
       2    O1      23.692638   19.632715   21.597469 O.co2      1 MOL1        -0.6735
       3    O2      22.777019   21.368823   22.455044 O.co2      1 MOL1        -0.6735
       4    C2      21.665180   20.355509   20.638071 C.3        1 MOL1        -0.1985
       5    H1      22.116615   20.181755   19.654173 H          1 MOL1         0.0740
       6    H2      21.153808   21.324374   20.586082 H          1 MOL1         0.0740
       7    C3      20.646162   19.227992   20.946789 C.3        1 MOL1        -0.1882
       8    H3      19.948931   19.136885   20.102923 H          1 MOL1         0.0742
       9    H4      21.176902   18.268786   21.023543 H          1 MOL1         0.0742
      10    C4      19.846065   19.488603   22.242750 C.3        1 MOL1        -0.1880
      11    H5      19.328067   20.454438   22.166230 H          1 MOL1         0.0742
      12    H6      20.535864   19.563956   23.094751 H          1 MOL1         0.0742
      13    C5      18.816567   18.370486   22.513686 C.3        1 MOL1        -0.1880
      14    H7      18.123810   18.295069   21.664298 H          1 MOL1         0.0742
      15    H8      19.335331   17.405007   22.590120 H          1 MOL1         0.0742
      16    C6      18.017689   18.629667   23.808162 C.3        1 MOL1        -0.1856
      17    H9      17.495991   19.593980   23.734724 H          1 MOL1         0.0742
      18    H10     18.707364   18.703915   24.660418 H          1 MOL1         0.0742
      19    C7      16.991107   17.510795   24.075768 C.3        1 MOL1        -0.2871
      20    H11     16.268811   17.435307   23.252370 H          1 MOL1         0.0754
      21    H12     16.432519   17.711086   24.999320 H          1 MOL1         0.0754
      22    H13     17.489337   16.538570   24.185069 H          1 MOL1         0.0754
@<TRIPOS>BOND
    1     1     2    1
    2     1     3    2
    3     1     4    1
    4     4     5    1
    5     4     6    1
    6     4     7    1
    7     7     8    1
    8     7     9    1
    9     7    10    1
   10    10    11    1
   11    10    12    1
   12    10    13    1
   13    13    14    1
   14    13    15    1
   15    13    16    1
   16    16    17    1
   17    16    18    1
   18    16    19    1
   19    19    20    1
   20    19    21    1
   21    19    22    1
@<TRIPOS>SUBSTRUCTURE
       1 MOL1            1 RESIDUE      1      MOL     
@<SCITEGIC>MOL_PROPERTY
VConf Rank
SciTegic.value.IntegerValue
830

@<SCITEGIC>MOL_PROPERTY
Conf_Id
SciTegic.value.IntegerValue
44

@<SCITEGIC>MOL_PROPERTY
Delta U+W
SciTegic.value.DoubleValue
-0.155

@<SCITEGIC>MOL_PROPERTY
U+W
SciTegic.value.DoubleValue
-53.314

@<SCITEGIC>MOL_PROPERTY
Grad RMS
SciTegic.value.DoubleValue
0.000000

@<SCITEGIC>MOL_PROPERTY
U
SciTegic.value.DoubleValue
7.937

@<SCITEGIC>MOL_PROPERTY
W
SciTegic.value.DoubleValue
-61.252

@<SCITEGIC>MOL_PROPERTY
W(PB)
SciTegic.value.DoubleValue
-63.556

@<SCITEGIC>MOL_PROPERTY
W(SA)
SciTegic.value.DoubleValue
2.304

@<SCITEGIC>MOL_PROPERTY
Valence
SciTegic.value.DoubleValue
7.358

@<SCITEGIC>MOL_PROPERTY
Coulomb
SciTegic.value.DoubleValue
-0.021

@<SCITEGIC>MOL_PROPERTY
VdW
SciTegic.value.DoubleValue
0.600

@<SCITEGIC>MOL_PROPERTY
VdW6
SciTegic.value.DoubleValue
-7.363

@<SCITEGIC>MOL_PROPERTY
VdW12
SciTegic.value.DoubleValue
7.964

@<SCITEGIC>MOL_PROPERTY
Bond
SciTegic.value.DoubleValue
0.121

@<SCITEGIC>MOL_PROPERTY
Angle
SciTegic.value.DoubleValue
2.425

@<SCITEGIC>MOL_PROPERTY
Pdih
SciTegic.value.DoubleValue
4.811

@<SCITEGIC>MOL_PROPERTY
Idih
SciTegic.value.DoubleValue
0.001

@<SCITEGIC>MOL_PROPERTY
Tether
SciTegic.value.DoubleValue
0.000

@<TRIPOS>MOLECULE
guest-s21_confgen4.mol2 : confsearch ligand conformer 831
          22          21           1
SMALL
USER_CHARGES
 
@<TRIPOS>ATOM
       1    C1      20.601542   15.625289   22.777000 C.2        1 MOL1         0.6145
       2    O1      19.638622   14.966928   23.117984 O.co2      1 MOL1        -0.6735
       3    O2      21.672599   15.596572   23.350480 O.co2      1 MOL1        -0.6735
       4    C2      20.461655   16.521916   21.549888 C.3        1 MOL1        -0.1985
       5    H1      19.969396   15.931606   20.768066 H          1 MOL1         0.0740
       6    H2      21.464119   16.767087   21.178612 H          1 MOL1         0.0740
       7    C3      19.652610   17.820542   21.804140 C.3        1 MOL1        -0.1882
       8    H3      19.475978   18.314044   20.840075 H          1 MOL1         0.0742
       9    H4      18.666535   17.560573   22.213375 H          1 MOL1         0.0742
      10    C4      20.378693   18.794316   22.763190 C.3        1 MOL1        -0.1880
      11    H5      21.346225   19.086238   22.332534 H          1 MOL1         0.0742
      12    H6      20.603850   18.272948   23.703653 H          1 MOL1         0.0742
      13    C5      19.555299   20.061436   23.095234 C.3        1 MOL1        -0.1880
      14    H7      18.587755   19.769027   23.525668 H          1 MOL1         0.0742
      15    H8      20.084577   20.624840   23.875838 H          1 MOL1         0.0742
      16    C6      19.326566   20.986199   21.878305 C.3        1 MOL1        -0.1856
      17    H9      18.728354   20.469115   21.116740 H          1 MOL1         0.0742
      18    H10     20.291357   21.234439   21.414894 H          1 MOL1         0.0742
      19    C7      18.604195   22.286547   22.284524 C.3        1 MOL1        -0.2871
      20    H11     17.623197   22.068710   22.726760 H          1 MOL1         0.0754
      21    H12     18.446205   22.930658   21.409753 H          1 MOL1         0.0754
      22    H13     19.193728   22.851122   23.018733 H          1 MOL1         0.0754
@<TRIPOS>BOND
    1     1     2    1
    2     1     3    2
    3     1     4    1
    4     4     5    1
    5     4     6    1
    6     4     7    1
    7     7     8    1
    8     7     9    1
    9     7    10    1
   10    10    11    1
   11    10    12    1
   12    10    13    1
   13    13    14    1
   14    13    15    1
   15    13    16    1
   16    16    17    1
   17    16    18    1
   18    16    19    1
   19    19    20    1
   20    19    21    1
   21    19    22    1
@<TRIPOS>SUBSTRUCTURE
       1 MOL1            1 RESIDUE      1      MOL     
@<SCITEGIC>MOL_PROPERTY
VConf Rank
SciTegic.value.IntegerValue
831

@<SCITEGIC>MOL_PROPERTY
Conf_Id
SciTegic.value.IntegerValue
53

@<SCITEGIC>MOL_PROPERTY
Delta U+W
SciTegic.value.DoubleValue
0.723

@<SCITEGIC>MOL_PROPERTY
U+W
SciTegic.value.DoubleValue
-52.436

@<SCITEGIC>MOL_PROPERTY
Grad RMS
SciTegic.value.DoubleValue
0.000000

@<SCITEGIC>MOL_PROPERTY
U
SciTegic.value.DoubleValue
8.587

@<SCITEGIC>MOL_PROPERTY
W
SciTegic.value.DoubleValue
-61.022

@<SCITEGIC>MOL_PROPERTY
W(PB)
SciTegic.value.DoubleValue
-63.285

@<SCITEGIC>MOL_PROPERTY
W(SA)
SciTegic.value.DoubleValue
2.263

@<SCITEGIC>MOL_PROPERTY
Valence
SciTegic.value.DoubleValue
7.933

@<SCITEGIC>MOL_PROPERTY
Coulomb
SciTegic.value.DoubleValue
-0.124

@<SCITEGIC>MOL_PROPERTY
VdW
SciTegic.value.DoubleValue
0.778

@<SCITEGIC>MOL_PROPERTY
VdW6
SciTegic.value.DoubleValue
-7.981

@<SCITEGIC>MOL_PROPERTY
VdW12
SciTegic.value.DoubleValue
8.759

@<SCITEGIC>MOL_PROPERTY
Bond
SciTegic.value.DoubleValue
0.160

@<SCITEGIC>MOL_PROPERTY
Angle
SciTegic.value.DoubleValue
2.698

@<SCITEGIC>MOL_PROPERTY
Pdih
SciTegic.value.DoubleValue
5.074

@<SCITEGIC>MOL_PROPERTY
Idih
SciTegic.value.DoubleValue
0.001

@<SCITEGIC>MOL_PROPERTY
Tether
SciTegic.value.DoubleValue
0.000

@<TRIPOS>MOLECULE
guest-s21_confgen4.mol2 : confsearch ligand conformer 832
          22          21           1
SMALL
USER_CHARGES
 
@<TRIPOS>ATOM
       1    C1      22.122156   18.037042   24.515759 C.2        1 MOL1         0.6145
       2    O1      21.607644   17.835830   25.598052 O.co2      1 MOL1        -0.6735
       3    O2      23.297456   17.835641   24.281898 O.co2      1 MOL1        -0.6735
       4    C2      21.240220   18.549231   23.382688 C.3        1 MOL1        -0.1985
       5    H1      21.858764   19.168678   22.722407 H          1 MOL1         0.0740
       6    H2      20.476227   19.198250   23.825203 H          1 MOL1         0.0740
       7    C3      20.574195   17.405644   22.576616 C.3        1 MOL1        -0.1882
       8    H3      21.352855   16.696958   22.262174 H          1 MOL1         0.0742
       9    H4      19.897232   16.845468   23.236297 H          1 MOL1         0.0742
      10    C4      19.801693   17.876574   21.318787 C.3        1 MOL1        -0.1880
      11    H5      19.420040   16.980437   20.810628 H          1 MOL1         0.0742
      12    H6      20.491692   18.351331   20.607829 H          1 MOL1         0.0742
      13    C5      18.602076   18.813246   21.610804 C.3        1 MOL1        -0.1880
      14    H7      17.796250   18.577883   20.902115 H          1 MOL1         0.0742
      15    H8      18.198026   18.608314   22.611659 H          1 MOL1         0.0742
      16    C6      18.946275   20.313638   21.465536 C.3        1 MOL1        -0.1856
      17    H9      19.294291   20.513376   20.442705 H          1 MOL1         0.0742
      18    H10     19.769410   20.587941   22.136037 H          1 MOL1         0.0742
      19    C7      17.726216   21.205597   21.770816 C.3        1 MOL1        -0.2871
      20    H11     16.895915   20.983332   21.087786 H          1 MOL1         0.0754
      21    H12     17.984335   22.266435   21.656661 H          1 MOL1         0.0754
      22    H13     17.375022   21.051022   22.799470 H          1 MOL1         0.0754
@<TRIPOS>BOND
    1     1     2    1
    2     1     3    2
    3     1     4    1
    4     4     5    1
    5     4     6    1
    6     4     7    1
    7     7     8    1
    8     7     9    1
    9     7    10    1
   10    10    11    1
   11    10    12    1
   12    10    13    1
   13    13    14    1
   14    13    15    1
   15    13    16    1
   16    16    17    1
   17    16    18    1
   18    16    19    1
   19    19    20    1
   20    19    21    1
   21    19    22    1
@<TRIPOS>SUBSTRUCTURE
       1 MOL1            1 RESIDUE      1      MOL     
@<SCITEGIC>MOL_PROPERTY
VConf Rank
SciTegic.value.IntegerValue
832

@<SCITEGIC>MOL_PROPERTY
Conf_Id
SciTegic.value.IntegerValue
5

@<SCITEGIC>MOL_PROPERTY
Delta U+W
SciTegic.value.DoubleValue
2.167

@<SCITEGIC>MOL_PROPERTY
U+W
SciTegic.value.DoubleValue
-50.993

@<SCITEGIC>MOL_PROPERTY
Grad RMS
SciTegic.value.DoubleValue
0.000000

@<SCITEGIC>MOL_PROPERTY
U
SciTegic.value.DoubleValue
10.045

@<SCITEGIC>MOL_PROPERTY
W
SciTegic.value.DoubleValue
-61.037

@<SCITEGIC>MOL_PROPERTY
W(PB)
SciTegic.value.DoubleValue
-63.303

@<SCITEGIC>MOL_PROPERTY
W(SA)
SciTegic.value.DoubleValue
2.266

@<SCITEGIC>MOL_PROPERTY
Valence
SciTegic.value.DoubleValue
10.100

@<SCITEGIC>MOL_PROPERTY
Coulomb
SciTegic.value.DoubleValue
-0.883

@<SCITEGIC>MOL_PROPERTY
VdW
SciTegic.value.DoubleValue
0.828

@<SCITEGIC>MOL_PROPERTY
VdW6
SciTegic.value.DoubleValue
-8.177

@<SCITEGIC>MOL_PROPERTY
VdW12
SciTegic.value.DoubleValue
9.005

@<SCITEGIC>MOL_PROPERTY
Bond
SciTegic.value.DoubleValue
0.182

@<SCITEGIC>MOL_PROPERTY
Angle
SciTegic.value.DoubleValue
2.988

@<SCITEGIC>MOL_PROPERTY
Pdih
SciTegic.value.DoubleValue
6.930

@<SCITEGIC>MOL_PROPERTY
Idih
SciTegic.value.DoubleValue
0.001

@<SCITEGIC>MOL_PROPERTY
Tether
SciTegic.value.DoubleValue
0.000

@<TRIPOS>MOLECULE
guest-s21_confgen4.mol2 : confsearch ligand conformer 833
          22          21           1
SMALL
USER_CHARGES
 
@<TRIPOS>ATOM
       1    C1      17.059732   20.696525   22.115918 C.2        1 MOL1         0.6145
       2    O1      16.684298   20.991494   23.233331 O.co2      1 MOL1        -0.6735
       3    O2      16.438646   20.961937   21.105773 O.co2      1 MOL1        -0.6735
       4    C2      18.370695   19.931376   21.974762 C.3        1 MOL1        -0.1985
       5    H1      19.039827   20.270745   22.773399 H          1 MOL1         0.0740
       6    H2      18.827912   20.211717   21.018392 H          1 MOL1         0.0740
       7    C3      18.180087   18.395343   22.048333 C.3        1 MOL1        -0.1882
       8    H3      17.796429   18.126149   23.042111 H          1 MOL1         0.0742
       9    H4      17.402668   18.102361   21.329164 H          1 MOL1         0.0742
      10    C4      19.461154   17.577513   21.747182 C.3        1 MOL1        -0.1880
      11    H5      19.796173   17.766170   20.718044 H          1 MOL1         0.0742
      12    H6      19.189749   16.513524   21.782015 H          1 MOL1         0.0742
      13    C5      20.625431   17.811190   22.742956 C.3        1 MOL1        -0.1880
      14    H7      20.229306   18.104775   23.724717 H          1 MOL1         0.0742
      15    H8      21.148003   16.857216   22.897381 H          1 MOL1         0.0742
      16    C6      21.657964   18.849374   22.246160 C.3        1 MOL1        -0.1856
      17    H9      21.173160   19.813114   22.049851 H          1 MOL1         0.0742
      18    H10     22.086970   18.513327   21.292104 H          1 MOL1         0.0742
      19    C7      22.792507   19.052911   23.270229 C.3        1 MOL1        -0.2871
      20    H11     22.396716   19.420358   24.226102 H          1 MOL1         0.0754
      21    H12     23.520446   19.786626   22.900364 H          1 MOL1         0.0754
      22    H13     23.325595   18.111830   23.458685 H          1 MOL1         0.0754
@<TRIPOS>BOND
    1     1     2    1
    2     1     3    2
    3     1     4    1
    4     4     5    1
    5     4     6    1
    6     4     7    1
    7     7     8    1
    8     7     9    1
    9     7    10    1
   10    10    11    1
   11    10    12    1
   12    10    13    1
   13    13    14    1
   14    13    15    1
   15    13    16    1
   16    16    17    1
   17    16    18    1
   18    16    19    1
   19    19    20    1
   20    19    21    1
   21    19    22    1
@<TRIPOS>SUBSTRUCTURE
       1 MOL1            1 RESIDUE      1      MOL     
@<SCITEGIC>MOL_PROPERTY
VConf Rank
SciTegic.value.IntegerValue
833

@<SCITEGIC>MOL_PROPERTY
Conf_Id
SciTegic.value.IntegerValue
6

@<SCITEGIC>MOL_PROPERTY
Delta U+W
SciTegic.value.DoubleValue
2.118

@<SCITEGIC>MOL_PROPERTY
U+W
SciTegic.value.DoubleValue
-51.042

@<SCITEGIC>MOL_PROPERTY
Grad RMS
SciTegic.value.DoubleValue
0.000000

@<SCITEGIC>MOL_PROPERTY
U
SciTegic.value.DoubleValue
10.045

@<SCITEGIC>MOL_PROPERTY
W
SciTegic.value.DoubleValue
-61.086

@<SCITEGIC>MOL_PROPERTY
W(PB)
SciTegic.value.DoubleValue
-63.356

@<SCITEGIC>MOL_PROPERTY
W(SA)
SciTegic.value.DoubleValue
2.270

@<SCITEGIC>MOL_PROPERTY
Valence
SciTegic.value.DoubleValue
10.100

@<SCITEGIC>MOL_PROPERTY
Coulomb
SciTegic.value.DoubleValue
-0.883

@<SCITEGIC>MOL_PROPERTY
VdW
SciTegic.value.DoubleValue
0.828

@<SCITEGIC>MOL_PROPERTY
VdW6
SciTegic.value.DoubleValue
-8.177

@<SCITEGIC>MOL_PROPERTY
VdW12
SciTegic.value.DoubleValue
9.004

@<SCITEGIC>MOL_PROPERTY
Bond
SciTegic.value.DoubleValue
0.182

@<SCITEGIC>MOL_PROPERTY
Angle
SciTegic.value.DoubleValue
2.988

@<SCITEGIC>MOL_PROPERTY
Pdih
SciTegic.value.DoubleValue
6.930

@<SCITEGIC>MOL_PROPERTY
Idih
SciTegic.value.DoubleValue
0.001

@<SCITEGIC>MOL_PROPERTY
Tether
SciTegic.value.DoubleValue
0.000

@<TRIPOS>MOLECULE
guest-s21_confgen4.mol2 : confsearch ligand conformer 834
          22          21           1
SMALL
USER_CHARGES
 
@<TRIPOS>ATOM
       1    C1      17.392680   17.473293   22.469590 C.2        1 MOL1         0.6145
       2    O1      16.546841   18.055791   23.119779 O.co2      1 MOL1        -0.6735
       3    O2      17.906752   16.429455   22.820571 O.co2      1 MOL1        -0.6735
       4    C2      17.780137   18.044016   21.106649 C.3        1 MOL1        -0.1985
       5    H1      16.874923   18.009181   20.489473 H          1 MOL1         0.0740
       6    H2      18.508354   17.374198   20.633482 H          1 MOL1         0.0740
       7    C3      18.322431   19.500927   21.126882 C.3        1 MOL1        -0.1882
       8    H3      18.214207   19.916823   20.116070 H          1 MOL1         0.0742
       9    H4      17.695553   20.125009   21.778893 H          1 MOL1         0.0742
      10    C4      19.810637   19.634470   21.534709 C.3        1 MOL1        -0.1880
      11    H5      20.119957   20.674620   21.363291 H          1 MOL1         0.0742
      12    H6      20.432074   19.014854   20.873859 H          1 MOL1         0.0742
      13    C5      20.095433   19.268631   23.009009 C.3        1 MOL1        -0.1880
      14    H7      19.402492   19.813296   23.664920 H          1 MOL1         0.0742
      15    H8      19.915310   18.198146   23.169264 H          1 MOL1         0.0742
      16    C6      21.550034   19.596359   23.407350 C.3        1 MOL1        -0.1856
      17    H9      21.742861   20.668088   23.260481 H          1 MOL1         0.0742
      18    H10     22.244352   19.053655   22.750990 H          1 MOL1         0.0742
      19    C7      21.834621   19.222105   24.875805 C.3        1 MOL1        -0.2871
      20    H11     21.174140   19.774782   25.556746 H          1 MOL1         0.0754
      21    H12     22.872577   19.460488   25.141975 H          1 MOL1         0.0754
      22    H13     21.679119   18.148344   25.044211 H          1 MOL1         0.0754
@<TRIPOS>BOND
    1     1     2    1
    2     1     3    2
    3     1     4    1
    4     4     5    1
    5     4     6    1
    6     4     7    1
    7     7     8    1
    8     7     9    1
    9     7    10    1
   10    10    11    1
   11    10    12    1
   12    10    13    1
   13    13    14    1
   14    13    15    1
   15    13    16    1
   16    16    17    1
   17    16    18    1
   18    16    19    1
   19    19    20    1
   20    19    21    1
   21    19    22    1
@<TRIPOS>SUBSTRUCTURE
       1 MOL1            1 RESIDUE      1      MOL     
@<SCITEGIC>MOL_PROPERTY
VConf Rank
SciTegic.value.IntegerValue
834

@<SCITEGIC>MOL_PROPERTY
Conf_Id
SciTegic.value.IntegerValue
8

@<SCITEGIC>MOL_PROPERTY
Delta U+W
SciTegic.value.DoubleValue
1.886

@<SCITEGIC>MOL_PROPERTY
U+W
SciTegic.value.DoubleValue
-51.274

@<SCITEGIC>MOL_PROPERTY
Grad RMS
SciTegic.value.DoubleValue
0.000000

@<SCITEGIC>MOL_PROPERTY
U
SciTegic.value.DoubleValue
11.237

@<SCITEGIC>MOL_PROPERTY
W
SciTegic.value.DoubleValue
-62.510

@<SCITEGIC>MOL_PROPERTY
W(PB)
SciTegic.value.DoubleValue
-64.777

@<SCITEGIC>MOL_PROPERTY
W(SA)
SciTegic.value.DoubleValue
2.267

@<SCITEGIC>MOL_PROPERTY
Valence
SciTegic.value.DoubleValue
9.029

@<SCITEGIC>MOL_PROPERTY
Coulomb
SciTegic.value.DoubleValue
1.667

@<SCITEGIC>MOL_PROPERTY
VdW
SciTegic.value.DoubleValue
0.540

@<SCITEGIC>MOL_PROPERTY
VdW6
SciTegic.value.DoubleValue
-8.825

@<SCITEGIC>MOL_PROPERTY
VdW12
SciTegic.value.DoubleValue
9.365

@<SCITEGIC>MOL_PROPERTY
Bond
SciTegic.value.DoubleValue
0.186

@<SCITEGIC>MOL_PROPERTY
Angle
SciTegic.value.DoubleValue
3.195

@<SCITEGIC>MOL_PROPERTY
Pdih
SciTegic.value.DoubleValue
5.642

@<SCITEGIC>MOL_PROPERTY
Idih
SciTegic.value.DoubleValue
0.007

@<SCITEGIC>MOL_PROPERTY
Tether
SciTegic.value.DoubleValue
0.000

@<TRIPOS>MOLECULE
guest-s21_confgen4.mol2 : confsearch ligand conformer 835
          22          21           1
SMALL
USER_CHARGES
 
@<TRIPOS>ATOM
       1    C1      17.167501   18.879421   20.655468 C.2        1 MOL1         0.6145
       2    O1      17.332752   20.055444   20.397733 O.co2      1 MOL1        -0.6735
       3    O2      16.092849   18.404038   20.966020 O.co2      1 MOL1        -0.6735
       4    C2      18.366880   17.941011   20.555268 C.3        1 MOL1        -0.1985
       5    H1      19.166959   18.450548   20.006675 H          1 MOL1         0.0740
       6    H2      18.062376   17.088905   19.936465 H          1 MOL1         0.0740
       7    C3      18.883381   17.421078   21.924956 C.3        1 MOL1        -0.1882
       8    H3      18.079435   16.849120   22.408547 H          1 MOL1         0.0742
       9    H4      19.704994   16.712299   21.754915 H          1 MOL1         0.0742
      10    C4      19.358881   18.528639   22.897550 C.3        1 MOL1        -0.1880
      11    H5      19.607674   18.054026   23.855066 H          1 MOL1         0.0742
      12    H6      18.532412   19.223080   23.101571 H          1 MOL1         0.0742
      13    C5      20.585226   19.319141   22.379256 C.3        1 MOL1        -0.1880
      14    H7      21.407434   18.626074   22.155368 H          1 MOL1         0.0742
      15    H8      20.324779   19.813101   21.434215 H          1 MOL1         0.0742
      16    C6      21.076899   20.405292   23.364414 C.3        1 MOL1        -0.1856
      17    H9      20.251821   21.090962   23.602071 H          1 MOL1         0.0742
      18    H10     21.847349   21.009009   22.865307 H          1 MOL1         0.0742
      19    C7      21.668500   19.829247   24.669401 C.3        1 MOL1        -0.2871
      20    H11     20.903193   19.318143   25.266416 H          1 MOL1         0.0754
      21    H12     22.088364   20.633353   25.287483 H          1 MOL1         0.0754
      22    H13     22.472841   19.113898   24.453972 H          1 MOL1         0.0754
@<TRIPOS>BOND
    1     1     2    1
    2     1     3    2
    3     1     4    1
    4     4     5    1
    5     4     6    1
    6     4     7    1
    7     7     8    1
    8     7     9    1
    9     7    10    1
   10    10    11    1
   11    10    12    1
   12    10    13    1
   13    13    14    1
   14    13    15    1
   15    13    16    1
   16    16    17    1
   17    16    18    1
   18    16    19    1
   19    19    20    1
   20    19    21    1
   21    19    22    1
@<TRIPOS>SUBSTRUCTURE
       1 MOL1            1 RESIDUE      1      MOL     
@<SCITEGIC>MOL_PROPERTY
VConf Rank
SciTegic.value.IntegerValue
835

@<SCITEGIC>MOL_PROPERTY
Conf_Id
SciTegic.value.IntegerValue
93

@<SCITEGIC>MOL_PROPERTY
Delta U+W
SciTegic.value.DoubleValue
1.836

@<SCITEGIC>MOL_PROPERTY
U+W
SciTegic.value.DoubleValue
-51.323

@<SCITEGIC>MOL_PROPERTY
Grad RMS
SciTegic.value.DoubleValue
0.000000

@<SCITEGIC>MOL_PROPERTY
U
SciTegic.value.DoubleValue
10.427

@<SCITEGIC>MOL_PROPERTY
W
SciTegic.value.DoubleValue
-61.751

@<SCITEGIC>MOL_PROPERTY
W(PB)
SciTegic.value.DoubleValue
-63.980

@<SCITEGIC>MOL_PROPERTY
W(SA)
SciTegic.value.DoubleValue
2.230

@<SCITEGIC>MOL_PROPERTY
Valence
SciTegic.value.DoubleValue
8.446

@<SCITEGIC>MOL_PROPERTY
Coulomb
SciTegic.value.DoubleValue
1.306

@<SCITEGIC>MOL_PROPERTY
VdW
SciTegic.value.DoubleValue
0.676

@<SCITEGIC>MOL_PROPERTY
VdW6
SciTegic.value.DoubleValue
-8.928

@<SCITEGIC>MOL_PROPERTY
VdW12
SciTegic.value.DoubleValue
9.604

@<SCITEGIC>MOL_PROPERTY
Bond
SciTegic.value.DoubleValue
0.209

@<SCITEGIC>MOL_PROPERTY
Angle
SciTegic.value.DoubleValue
3.066

@<SCITEGIC>MOL_PROPERTY
Pdih
SciTegic.value.DoubleValue
5.170

@<SCITEGIC>MOL_PROPERTY
Idih
SciTegic.value.DoubleValue
0.001

@<SCITEGIC>MOL_PROPERTY
Tether
SciTegic.value.DoubleValue
0.000

@<TRIPOS>MOLECULE
guest-s21_confgen4.mol2 : confsearch ligand conformer 836
          22          21           1
SMALL
USER_CHARGES
 
@<TRIPOS>ATOM
       1    C1      20.475019   21.153760   20.251600 C.2        1 MOL1         0.6145
       2    O1      21.073770   22.195440   20.435191 O.co2      1 MOL1        -0.6735
       3    O2      19.340851   21.097941   19.818801 O.co2      1 MOL1        -0.6735
       4    C2      21.199796   19.845028   20.553396 C.3        1 MOL1        -0.1985
       5    H1      22.175034   19.890837   20.054863 H          1 MOL1         0.0740
       6    H2      20.650563   19.022305   20.082036 H          1 MOL1         0.0740
       7    C3      21.410706   19.569711   22.067617 C.3        1 MOL1        -0.1882
       8    H3      21.986582   18.642315   22.188593 H          1 MOL1         0.0742
       9    H4      22.031383   20.373611   22.486939 H          1 MOL1         0.0742
      10    C4      20.104047   19.469545   22.893051 C.3        1 MOL1        -0.1880
      11    H5      19.537911   20.407073   22.806702 H          1 MOL1         0.0742
      12    H6      20.378824   19.370387   23.950718 H          1 MOL1         0.0742
      13    C5      19.203735   18.279516   22.479878 C.3        1 MOL1        -0.1880
      14    H7      18.910176   18.395319   21.428523 H          1 MOL1         0.0742
      15    H8      19.772273   17.342022   22.545934 H          1 MOL1         0.0742
      16    C6      17.913290   18.163477   23.324437 C.3        1 MOL1        -0.1856
      17    H9      17.269590   17.393184   22.877810 H          1 MOL1         0.0742
      18    H10     17.350426   19.105748   23.272579 H          1 MOL1         0.0742
      19    C7      18.175864   17.793492   24.800572 C.3        1 MOL1        -0.2871
      20    H11     18.713740   18.592433   25.325675 H          1 MOL1         0.0754
      21    H12     18.767775   16.872001   24.875375 H          1 MOL1         0.0754
      22    H13     17.227827   17.629664   25.329047 H          1 MOL1         0.0754
@<TRIPOS>BOND
    1     1     2    1
    2     1     3    2
    3     1     4    1
    4     4     5    1
    5     4     6    1
    6     4     7    1
    7     7     8    1
    8     7     9    1
    9     7    10    1
   10    10    11    1
   11    10    12    1
   12    10    13    1
   13    13    14    1
   14    13    15    1
   15    13    16    1
   16    16    17    1
   17    16    18    1
   18    16    19    1
   19    19    20    1
   20    19    21    1
   21    19    22    1
@<TRIPOS>SUBSTRUCTURE
       1 MOL1            1 RESIDUE      1      MOL     
@<SCITEGIC>MOL_PROPERTY
VConf Rank
SciTegic.value.IntegerValue
836

@<SCITEGIC>MOL_PROPERTY
Conf_Id
SciTegic.value.IntegerValue
70

@<SCITEGIC>MOL_PROPERTY
Delta U+W
SciTegic.value.DoubleValue
1.803

@<SCITEGIC>MOL_PROPERTY
U+W
SciTegic.value.DoubleValue
-51.356

@<SCITEGIC>MOL_PROPERTY
Grad RMS
SciTegic.value.DoubleValue
0.000000

@<SCITEGIC>MOL_PROPERTY
U
SciTegic.value.DoubleValue
10.428

@<SCITEGIC>MOL_PROPERTY
W
SciTegic.value.DoubleValue
-61.784

@<SCITEGIC>MOL_PROPERTY
W(PB)
SciTegic.value.DoubleValue
-64.014

@<SCITEGIC>MOL_PROPERTY
W(SA)
SciTegic.value.DoubleValue
2.230

@<SCITEGIC>MOL_PROPERTY
Valence
SciTegic.value.DoubleValue
8.445

@<SCITEGIC>MOL_PROPERTY
Coulomb
SciTegic.value.DoubleValue
1.306

@<SCITEGIC>MOL_PROPERTY
VdW
SciTegic.value.DoubleValue
0.676

@<SCITEGIC>MOL_PROPERTY
VdW6
SciTegic.value.DoubleValue
-8.929

@<SCITEGIC>MOL_PROPERTY
VdW12
SciTegic.value.DoubleValue
9.605

@<SCITEGIC>MOL_PROPERTY
Bond
SciTegic.value.DoubleValue
0.209

@<SCITEGIC>MOL_PROPERTY
Angle
SciTegic.value.DoubleValue
3.066

@<SCITEGIC>MOL_PROPERTY
Pdih
SciTegic.value.DoubleValue
5.170

@<SCITEGIC>MOL_PROPERTY
Idih
SciTegic.value.DoubleValue
0.001

@<SCITEGIC>MOL_PROPERTY
Tether
SciTegic.value.DoubleValue
0.000

@<TRIPOS>MOLECULE
guest-s21_confgen4.mol2 : confsearch ligand conformer 837
          22          21           1
SMALL
USER_CHARGES
 
@<TRIPOS>ATOM
       1    C1      20.445314   21.232732   20.014324 C.2        1 MOL1         0.6145
       2    O1      19.595274   21.048064   19.165653 O.co2      1 MOL1        -0.6735
       3    O2      21.638976   21.167126   19.795818 O.co2      1 MOL1        -0.6735
       4    C2      19.986715   21.586972   21.426166 C.3        1 MOL1        -0.1985
       5    H1      19.198382   22.343484   21.335295 H          1 MOL1         0.0740
       6    H2      20.821404   22.060751   21.956889 H          1 MOL1         0.0740
       7    C3      19.452909   20.377459   22.236791 C.3        1 MOL1        -0.1882
       8    H3      19.026822   20.741202   23.181464 H          1 MOL1         0.0742
       9    H4      18.632424   19.908930   21.677402 H          1 MOL1         0.0742
      10    C4      20.556096   19.335959   22.541455 C.3        1 MOL1        -0.1880
      11    H5      21.403259   19.843792   23.022352 H          1 MOL1         0.0742
      12    H6      20.940975   18.914449   21.602571 H          1 MOL1         0.0742
      13    C5      20.082241   18.188919   23.465191 C.3        1 MOL1        -0.1880
      14    H7      20.952074   17.570886   23.726563 H          1 MOL1         0.0742
      15    H8      19.704123   18.607403   24.407933 H          1 MOL1         0.0742
      16    C6      19.002003   17.288755   22.824128 C.3        1 MOL1        -0.1856
      17    H9      19.360059   16.912733   21.855794 H          1 MOL1         0.0742
      18    H10     18.093052   17.871544   22.625325 H          1 MOL1         0.0742
      19    C7      18.644586   16.097613   23.735812 C.3        1 MOL1        -0.2871
      20    H11     19.524703   15.469148   23.924961 H          1 MOL1         0.0754
      21    H12     17.874623   15.470204   23.268293 H          1 MOL1         0.0754
      22    H13     18.257436   16.445674   24.702426 H          1 MOL1         0.0754
@<TRIPOS>BOND
    1     1     2    1
    2     1     3    2
    3     1     4    1
    4     4     5    1
    5     4     6    1
    6     4     7    1
    7     7     8    1
    8     7     9    1
    9     7    10    1
   10    10    11    1
   11    10    12    1
   12    10    13    1
   13    13    14    1
   14    13    15    1
   15    13    16    1
   16    16    17    1
   17    16    18    1
   18    16    19    1
   19    19    20    1
   20    19    21    1
   21    19    22    1
@<TRIPOS>SUBSTRUCTURE
       1 MOL1            1 RESIDUE      1      MOL     
@<SCITEGIC>MOL_PROPERTY
VConf Rank
SciTegic.value.IntegerValue
837

@<SCITEGIC>MOL_PROPERTY
Conf_Id
SciTegic.value.IntegerValue
85

@<SCITEGIC>MOL_PROPERTY
Delta U+W
SciTegic.value.DoubleValue
0.707

@<SCITEGIC>MOL_PROPERTY
U+W
SciTegic.value.DoubleValue
-52.452

@<SCITEGIC>MOL_PROPERTY
Grad RMS
SciTegic.value.DoubleValue
0.000000

@<SCITEGIC>MOL_PROPERTY
U
SciTegic.value.DoubleValue
8.925

@<SCITEGIC>MOL_PROPERTY
W
SciTegic.value.DoubleValue
-61.378

@<SCITEGIC>MOL_PROPERTY
W(PB)
SciTegic.value.DoubleValue
-63.661

@<SCITEGIC>MOL_PROPERTY
W(SA)
SciTegic.value.DoubleValue
2.283

@<SCITEGIC>MOL_PROPERTY
Valence
SciTegic.value.DoubleValue
7.881

@<SCITEGIC>MOL_PROPERTY
Coulomb
SciTegic.value.DoubleValue
0.349

@<SCITEGIC>MOL_PROPERTY
VdW
SciTegic.value.DoubleValue
0.695

@<SCITEGIC>MOL_PROPERTY
VdW6
SciTegic.value.DoubleValue
-8.049

@<SCITEGIC>MOL_PROPERTY
VdW12
SciTegic.value.DoubleValue
8.743

@<SCITEGIC>MOL_PROPERTY
Bond
SciTegic.value.DoubleValue
0.156

@<SCITEGIC>MOL_PROPERTY
Angle
SciTegic.value.DoubleValue
2.660

@<SCITEGIC>MOL_PROPERTY
Pdih
SciTegic.value.DoubleValue
5.064

@<SCITEGIC>MOL_PROPERTY
Idih
SciTegic.value.DoubleValue
0.001

@<SCITEGIC>MOL_PROPERTY
Tether
SciTegic.value.DoubleValue
0.000

@<TRIPOS>MOLECULE
guest-s21_confgen4.mol2 : confsearch ligand conformer 838
          22          21           1
SMALL
USER_CHARGES
 
@<TRIPOS>ATOM
       1    C1      21.466759   20.377175   19.869042 C.2        1 MOL1         0.6145
       2    O1      20.710061   20.955845   19.114397 O.co2      1 MOL1        -0.6735
       3    O2      22.485890   20.872039   20.308877 O.co2      1 MOL1        -0.6735
       4    C2      21.132878   18.942629   20.269039 C.3        1 MOL1        -0.1985
       5    H1      22.050908   18.352419   20.164816 H          1 MOL1         0.0740
       6    H2      20.411152   18.536668   19.549899 H          1 MOL1         0.0740
       7    C3      20.587539   18.799041   21.713918 C.3        1 MOL1        -0.1882
       8    H3      20.529231   17.730556   21.956502 H          1 MOL1         0.0742
       9    H4      21.298274   19.251641   22.419105 H          1 MOL1         0.0742
      10    C4      19.191328   19.440014   21.889499 C.3        1 MOL1        -0.1880
      11    H5      18.468959   18.923736   21.242706 H          1 MOL1         0.0742
      12    H6      19.225781   20.481061   21.540394 H          1 MOL1         0.0742
      13    C5      18.669587   19.438788   23.348372 C.3        1 MOL1        -0.1880
      14    H7      19.337569   20.032253   23.987532 H          1 MOL1         0.0742
      15    H8      17.705753   19.965909   23.354193 H          1 MOL1         0.0742
      16    C6      18.452481   18.031720   23.959050 C.3        1 MOL1        -0.1856
      17    H9      18.233095   17.302158   23.167330 H          1 MOL1         0.0742
      18    H10     17.561789   18.061588   24.601758 H          1 MOL1         0.0742
      19    C7      19.643581   17.549894   24.817045 C.3        1 MOL1        -0.2871
      20    H11     20.567620   17.482080   24.231848 H          1 MOL1         0.0754
      21    H12     19.438086   16.556136   25.235417 H          1 MOL1         0.0754
      22    H13     19.823400   18.235996   25.654908 H          1 MOL1         0.0754
@<TRIPOS>BOND
    1     1     2    1
    2     1     3    2
    3     1     4    1
    4     4     5    1
    5     4     6    1
    6     4     7    1
    7     7     8    1
    8     7     9    1
    9     7    10    1
   10    10    11    1
   11    10    12    1
   12    10    13    1
   13    13    14    1
   14    13    15    1
   15    13    16    1
   16    16    17    1
   17    16    18    1
   18    16    19    1
   19    19    20    1
   20    19    21    1
   21    19    22    1
@<TRIPOS>SUBSTRUCTURE
       1 MOL1            1 RESIDUE      1      MOL     
@<SCITEGIC>MOL_PROPERTY
VConf Rank
SciTegic.value.IntegerValue
838

@<SCITEGIC>MOL_PROPERTY
Conf_Id
SciTegic.value.IntegerValue
82

@<SCITEGIC>MOL_PROPERTY
Delta U+W
SciTegic.value.DoubleValue
3.438

@<SCITEGIC>MOL_PROPERTY
U+W
SciTegic.value.DoubleValue
-49.721

@<SCITEGIC>MOL_PROPERTY
Grad RMS
SciTegic.value.DoubleValue
0.000000

@<SCITEGIC>MOL_PROPERTY
U
SciTegic.value.DoubleValue
11.773

@<SCITEGIC>MOL_PROPERTY
W
SciTegic.value.DoubleValue
-61.495

@<SCITEGIC>MOL_PROPERTY
W(PB)
SciTegic.value.DoubleValue
-63.749

@<SCITEGIC>MOL_PROPERTY
W(SA)
SciTegic.value.DoubleValue
2.254

@<SCITEGIC>MOL_PROPERTY
Valence
SciTegic.value.DoubleValue
10.419

@<SCITEGIC>MOL_PROPERTY
Coulomb
SciTegic.value.DoubleValue
0.565

@<SCITEGIC>MOL_PROPERTY
VdW
SciTegic.value.DoubleValue
0.789

@<SCITEGIC>MOL_PROPERTY
VdW6
SciTegic.value.DoubleValue
-8.847

@<SCITEGIC>MOL_PROPERTY
VdW12
SciTegic.value.DoubleValue
9.636

@<SCITEGIC>MOL_PROPERTY
Bond
SciTegic.value.DoubleValue
0.200

@<SCITEGIC>MOL_PROPERTY
Angle
SciTegic.value.DoubleValue
3.187

@<SCITEGIC>MOL_PROPERTY
Pdih
SciTegic.value.DoubleValue
7.032

@<SCITEGIC>MOL_PROPERTY
Idih
SciTegic.value.DoubleValue
0.001

@<SCITEGIC>MOL_PROPERTY
Tether
SciTegic.value.DoubleValue
0.000

@<TRIPOS>MOLECULE
guest-s21_confgen4.mol2 : confsearch ligand conformer 839
          22          21           1
SMALL
USER_CHARGES
 
@<TRIPOS>ATOM
       1    C1      16.739212   18.092880   22.946562 C.2        1 MOL1         0.6145
       2    O1      16.580402   17.986317   24.146728 O.co2      1 MOL1        -0.6735
       3    O2      15.971714   18.689821   22.217490 O.co2      1 MOL1        -0.6735
       4    C2      17.957187   17.419976   22.319555 C.3        1 MOL1        -0.1985
       5    H1      17.781434   17.309221   21.242661 H          1 MOL1         0.0740
       6    H2      18.021856   16.407959   22.736246 H          1 MOL1         0.0740
       7    C3      19.292560   18.168160   22.569936 C.3        1 MOL1        -0.1882
       8    H3      19.432637   18.313652   23.649977 H          1 MOL1         0.0742
       9    H4      20.115624   17.531901   22.221160 H          1 MOL1         0.0742
      10    C4      19.356520   19.531173   21.842484 C.3        1 MOL1        -0.1880
      11    H5      18.470736   20.124014   22.108503 H          1 MOL1         0.0742
      12    H6      19.301764   19.368521   20.757474 H          1 MOL1         0.0742
      13    C5      20.615253   20.371248   22.174739 C.3        1 MOL1        -0.1880
      14    H7      20.519598   21.330719   21.648306 H          1 MOL1         0.0742
      15    H8      20.630820   20.618892   23.244952 H          1 MOL1         0.0742
      16    C6      21.957978   19.723118   21.754129 C.3        1 MOL1        -0.1856
      17    H9      22.635846   20.514537   21.405635 H          1 MOL1         0.0742
      18    H10     21.805769   19.052549   20.897169 H          1 MOL1         0.0742
      19    C7      22.657850   18.969411   22.907009 C.3        1 MOL1        -0.2871
      20    H11     22.880009   19.649674   23.739460 H          1 MOL1         0.0754
      21    H12     23.607122   18.538539   22.563426 H          1 MOL1         0.0754
      22    H13     22.040079   18.151600   23.294885 H          1 MOL1         0.0754
@<TRIPOS>BOND
    1     1     2    1
    2     1     3    2
    3     1     4    1
    4     4     5    1
    5     4     6    1
    6     4     7    1
    7     7     8    1
    8     7     9    1
    9     7    10    1
   10    10    11    1
   11    10    12    1
   12    10    13    1
   13    13    14    1
   14    13    15    1
   15    13    16    1
   16    16    17    1
   17    16    18    1
   18    16    19    1
   19    19    20    1
   20    19    21    1
   21    19    22    1
@<TRIPOS>SUBSTRUCTURE
       1 MOL1            1 RESIDUE      1      MOL     
@<SCITEGIC>MOL_PROPERTY
VConf Rank
SciTegic.value.IntegerValue
839

@<SCITEGIC>MOL_PROPERTY
Conf_Id
SciTegic.value.IntegerValue
94

@<SCITEGIC>MOL_PROPERTY
Delta U+W
SciTegic.value.DoubleValue
3.471

@<SCITEGIC>MOL_PROPERTY
U+W
SciTegic.value.DoubleValue
-49.688

@<SCITEGIC>MOL_PROPERTY
Grad RMS
SciTegic.value.DoubleValue
0.000000

@<SCITEGIC>MOL_PROPERTY
U
SciTegic.value.DoubleValue
11.773

@<SCITEGIC>MOL_PROPERTY
W
SciTegic.value.DoubleValue
-61.461

@<SCITEGIC>MOL_PROPERTY
W(PB)
SciTegic.value.DoubleValue
-63.710

@<SCITEGIC>MOL_PROPERTY
W(SA)
SciTegic.value.DoubleValue
2.248

@<SCITEGIC>MOL_PROPERTY
Valence
SciTegic.value.DoubleValue
10.419

@<SCITEGIC>MOL_PROPERTY
Coulomb
SciTegic.value.DoubleValue
0.566

@<SCITEGIC>MOL_PROPERTY
VdW
SciTegic.value.DoubleValue
0.789

@<SCITEGIC>MOL_PROPERTY
VdW6
SciTegic.value.DoubleValue
-8.847

@<SCITEGIC>MOL_PROPERTY
VdW12
SciTegic.value.DoubleValue
9.636

@<SCITEGIC>MOL_PROPERTY
Bond
SciTegic.value.DoubleValue
0.200

@<SCITEGIC>MOL_PROPERTY
Angle
SciTegic.value.DoubleValue
3.187

@<SCITEGIC>MOL_PROPERTY
Pdih
SciTegic.value.DoubleValue
7.032

@<SCITEGIC>MOL_PROPERTY
Idih
SciTegic.value.DoubleValue
0.001

@<SCITEGIC>MOL_PROPERTY
Tether
SciTegic.value.DoubleValue
0.000

@<TRIPOS>MOLECULE
guest-s21_confgen4.mol2 : confsearch ligand conformer 840
          22          21           1
SMALL
USER_CHARGES
 
@<TRIPOS>ATOM
       1    C1      21.194407   16.211483   21.413740 C.2        1 MOL1         0.6145
       2    O1      20.794880   15.313026   20.699701 O.co2      1 MOL1        -0.6735
       3    O2      21.978974   16.046559   22.326882 O.co2      1 MOL1        -0.6735
       4    C2      20.667252   17.619533   21.161870 C.3        1 MOL1        -0.1985
       5    H1      20.482766   17.727404   20.086435 H          1 MOL1         0.0740
       6    H2      21.461475   18.325935   21.428779 H          1 MOL1         0.0740
       7    C3      19.374086   17.927935   21.960032 C.3        1 MOL1        -0.1882
       8    H3      18.626367   17.155694   21.732748 H          1 MOL1         0.0742
       9    H4      19.577843   17.845913   23.035942 H          1 MOL1         0.0742
      10    C4      18.764774   19.315459   21.637650 C.3        1 MOL1        -0.1880
      11    H5      17.829710   19.432235   22.201114 H          1 MOL1         0.0742
      12    H6      18.477620   19.338728   20.577675 H          1 MOL1         0.0742
      13    C5      19.690743   20.526494   21.925997 C.3        1 MOL1        -0.1880
      14    H7      20.550664   20.497131   21.244142 H          1 MOL1         0.0742
      15    H8      19.147788   21.448699   21.678444 H          1 MOL1         0.0742
      16    C6      20.208177   20.628466   23.381948 C.3        1 MOL1        -0.1856
      17    H9      20.869628   21.502294   23.458208 H          1 MOL1         0.0742
      18    H10     20.828779   19.755603   23.624776 H          1 MOL1         0.0742
      19    C7      19.076611   20.769494   24.422847 C.3        1 MOL1        -0.2871
      20    H11     18.433185   21.627727   24.189624 H          1 MOL1         0.0754
      21    H12     19.494336   20.921948   25.426345 H          1 MOL1         0.0754
      22    H13     18.451097   19.868607   24.455879 H          1 MOL1         0.0754
@<TRIPOS>BOND
    1     1     2    1
    2     1     3    2
    3     1     4    1
    4     4     5    1
    5     4     6    1
    6     4     7    1
    7     7     8    1
    8     7     9    1
    9     7    10    1
   10    10    11    1
   11    10    12    1
   12    10    13    1
   13    13    14    1
   14    13    15    1
   15    13    16    1
   16    16    17    1
   17    16    18    1
   18    16    19    1
   19    19    20    1
   20    19    21    1
   21    19    22    1
@<TRIPOS>SUBSTRUCTURE
       1 MOL1            1 RESIDUE      1      MOL     
@<SCITEGIC>MOL_PROPERTY
VConf Rank
SciTegic.value.IntegerValue
840

@<SCITEGIC>MOL_PROPERTY
Conf_Id
SciTegic.value.IntegerValue
56

@<SCITEGIC>MOL_PROPERTY
Delta U+W
SciTegic.value.DoubleValue
0.853

@<SCITEGIC>MOL_PROPERTY
U+W
SciTegic.value.DoubleValue
-52.307

@<SCITEGIC>MOL_PROPERTY
Grad RMS
SciTegic.value.DoubleValue
0.000000

@<SCITEGIC>MOL_PROPERTY
U
SciTegic.value.DoubleValue
8.874

@<SCITEGIC>MOL_PROPERTY
W
SciTegic.value.DoubleValue
-61.181

@<SCITEGIC>MOL_PROPERTY
W(PB)
SciTegic.value.DoubleValue
-63.413

@<SCITEGIC>MOL_PROPERTY
W(SA)
SciTegic.value.DoubleValue
2.232

@<SCITEGIC>MOL_PROPERTY
Valence
SciTegic.value.DoubleValue
8.479

@<SCITEGIC>MOL_PROPERTY
Coulomb
SciTegic.value.DoubleValue
-0.357

@<SCITEGIC>MOL_PROPERTY
VdW
SciTegic.value.DoubleValue
0.753

@<SCITEGIC>MOL_PROPERTY
VdW6
SciTegic.value.DoubleValue
-9.081

@<SCITEGIC>MOL_PROPERTY
VdW12
SciTegic.value.DoubleValue
9.833

@<SCITEGIC>MOL_PROPERTY
Bond
SciTegic.value.DoubleValue
0.221

@<SCITEGIC>MOL_PROPERTY
Angle
SciTegic.value.DoubleValue
3.208

@<SCITEGIC>MOL_PROPERTY
Pdih
SciTegic.value.DoubleValue
5.050

@<SCITEGIC>MOL_PROPERTY
Idih
SciTegic.value.DoubleValue
0.000

@<SCITEGIC>MOL_PROPERTY
Tether
SciTegic.value.DoubleValue
0.000

@<TRIPOS>MOLECULE
guest-s21_confgen4.mol2 : confsearch ligand conformer 841
          22          21           1
SMALL
USER_CHARGES
 
@<TRIPOS>ATOM
       1    C1      19.633151   18.488490   18.134433 C.2        1 MOL1         0.6145
       2    O1      20.500911   17.636838   18.125284 O.co2      1 MOL1        -0.6735
       3    O2      19.072660   18.875328   17.128388 O.co2      1 MOL1        -0.6735
       4    C2      19.205255   19.121870   19.459296 C.3        1 MOL1        -0.1985
       5    H1      18.127407   18.953969   19.568941 H          1 MOL1         0.0740
       6    H2      19.353742   20.204209   19.367316 H          1 MOL1         0.0740
       7    C3      19.948449   18.595519   20.715889 C.3        1 MOL1        -0.1882
       8    H3      19.800765   17.509776   20.798598 H          1 MOL1         0.0742
       9    H4      21.028190   18.761311   20.596884 H          1 MOL1         0.0742
      10    C4      19.455811   19.286588   22.005945 C.3        1 MOL1        -0.1880
      11    H5      18.376201   19.119467   22.122748 H          1 MOL1         0.0742
      12    H6      19.604334   20.371867   21.920846 H          1 MOL1         0.0742
      13    C5      20.196421   18.761638   23.254637 C.3        1 MOL1        -0.1880
      14    H7      20.048234   17.676346   23.340132 H          1 MOL1         0.0742
      15    H8      21.276108   18.928579   23.138301 H          1 MOL1         0.0742
      16    C6      19.704574   19.451759   24.544180 C.3        1 MOL1        -0.1856
      17    H9      18.625163   19.285185   24.665018 H          1 MOL1         0.0742
      18    H10     19.853032   20.537516   24.463141 H          1 MOL1         0.0742
      19    C7      20.446634   18.924827   25.788778 C.3        1 MOL1        -0.2871
      20    H11     20.289310   17.845269   25.912115 H          1 MOL1         0.0754
      21    H12     20.084699   19.425883   26.695992 H          1 MOL1         0.0754
      22    H13     21.526357   19.107043   25.708758 H          1 MOL1         0.0754
@<TRIPOS>BOND
    1     1     2    1
    2     1     3    2
    3     1     4    1
    4     4     5    1
    5     4     6    1
    6     4     7    1
    7     7     8    1
    8     7     9    1
    9     7    10    1
   10    10    11    1
   11    10    12    1
   12    10    13    1
   13    13    14    1
   14    13    15    1
   15    13    16    1
   16    16    17    1
   17    16    18    1
   18    16    19    1
   19    19    20    1
   20    19    21    1
   21    19    22    1
@<TRIPOS>SUBSTRUCTURE
       1 MOL1            1 RESIDUE      1      MOL     
@<SCITEGIC>MOL_PROPERTY
VConf Rank
SciTegic.value.IntegerValue
841

@<SCITEGIC>MOL_PROPERTY
Conf_Id
SciTegic.value.IntegerValue
0

@<SCITEGIC>MOL_PROPERTY
Delta U+W
SciTegic.value.DoubleValue
0.000

@<SCITEGIC>MOL_PROPERTY
U+W
SciTegic.value.DoubleValue
-53.159

@<SCITEGIC>MOL_PROPERTY
Grad RMS
SciTegic.value.DoubleValue
0.000000

@<SCITEGIC>MOL_PROPERTY
U
SciTegic.value.DoubleValue
6.763

@<SCITEGIC>MOL_PROPERTY
W
SciTegic.value.DoubleValue
-59.922

@<SCITEGIC>MOL_PROPERTY
W(PB)
SciTegic.value.DoubleValue
-62.256

@<SCITEGIC>MOL_PROPERTY
W(SA)
SciTegic.value.DoubleValue
2.334

@<SCITEGIC>MOL_PROPERTY
Valence
SciTegic.value.DoubleValue
7.600

@<SCITEGIC>MOL_PROPERTY
Coulomb
SciTegic.value.DoubleValue
-2.139

@<SCITEGIC>MOL_PROPERTY
VdW
SciTegic.value.DoubleValue
1.302

@<SCITEGIC>MOL_PROPERTY
VdW6
SciTegic.value.DoubleValue
-6.786

@<SCITEGIC>MOL_PROPERTY
VdW12
SciTegic.value.DoubleValue
8.088

@<SCITEGIC>MOL_PROPERTY
Bond
SciTegic.value.DoubleValue
0.134

@<SCITEGIC>MOL_PROPERTY
Angle
SciTegic.value.DoubleValue
2.720

@<SCITEGIC>MOL_PROPERTY
Pdih
SciTegic.value.DoubleValue
4.746

@<SCITEGIC>MOL_PROPERTY
Idih
SciTegic.value.DoubleValue
0.000

@<SCITEGIC>MOL_PROPERTY
Tether
SciTegic.value.DoubleValue
0.000

@<TRIPOS>MOLECULE
guest-s21_confgen4.mol2 : confsearch ligand conformer 842
          22          21           1
SMALL
USER_CHARGES
 
@<TRIPOS>ATOM
       1    C1      21.055902   22.800745   22.127526 C.2        1 MOL1         0.6145
       2    O1      21.964386   23.036377   22.899255 O.co2      1 MOL1        -0.6735
       3    O2      20.195484   23.607109   21.834460 O.co2      1 MOL1        -0.6735
       4    C2      20.978595   21.409025   21.509988 C.3        1 MOL1        -0.1985
       5    H1      22.001662   21.034218   21.385422 H          1 MOL1         0.0740
       6    H2      20.544062   21.504686   20.507645 H          1 MOL1         0.0740
       7    C3      20.146369   20.418500   22.361052 C.3        1 MOL1        -0.1882
       8    H3      20.586647   20.343978   23.365131 H          1 MOL1         0.0742
       9    H4      19.129091   20.814430   22.487381 H          1 MOL1         0.0742
      10    C4      20.083318   19.017633   21.714929 C.3        1 MOL1        -0.1880
      11    H5      21.101827   18.625282   21.588944 H          1 MOL1         0.0742
      12    H6      19.643932   19.095861   20.710941 H          1 MOL1         0.0742
      13    C5      19.253089   18.032444   22.565469 C.3        1 MOL1        -0.1880
      14    H7      19.692154   17.953947   23.569553 H          1 MOL1         0.0742
      15    H8      18.234498   18.424445   22.691699 H          1 MOL1         0.0742
      16    C6      19.189609   16.632129   21.920366 C.3        1 MOL1        -0.1856
      17    H9      20.206710   16.235786   21.794292 H          1 MOL1         0.0742
      18    H10     18.749065   16.706280   20.916424 H          1 MOL1         0.0742
      19    C7      18.359688   15.651283   22.772722 C.3        1 MOL1        -0.2871
      20    H11     17.327740   16.007727   22.888648 H          1 MOL1         0.0754
      21    H12     18.796307   15.533823   23.773209 H          1 MOL1         0.0754
      22    H13     18.325145   14.661271   22.299674 H          1 MOL1         0.0754
@<TRIPOS>BOND
    1     1     2    1
    2     1     3    2
    3     1     4    1
    4     4     5    1
    5     4     6    1
    6     4     7    1
    7     7     8    1
    8     7     9    1
    9     7    10    1
   10    10    11    1
   11    10    12    1
   12    10    13    1
   13    13    14    1
   14    13    15    1
   15    13    16    1
   16    16    17    1
   17    16    18    1
   18    16    19    1
   19    19    20    1
   20    19    21    1
   21    19    22    1
@<TRIPOS>SUBSTRUCTURE
       1 MOL1            1 RESIDUE      1      MOL     
@<SCITEGIC>MOL_PROPERTY
VConf Rank
SciTegic.value.IntegerValue
842

@<SCITEGIC>MOL_PROPERTY
Conf_Id
SciTegic.value.IntegerValue
10

@<SCITEGIC>MOL_PROPERTY
Delta U+W
SciTegic.value.DoubleValue
-1.291

@<SCITEGIC>MOL_PROPERTY
U+W
SciTegic.value.DoubleValue
-54.451

@<SCITEGIC>MOL_PROPERTY
Grad RMS
SciTegic.value.DoubleValue
0.000000

@<SCITEGIC>MOL_PROPERTY
U
SciTegic.value.DoubleValue
5.779

@<SCITEGIC>MOL_PROPERTY
W
SciTegic.value.DoubleValue
-60.230

@<SCITEGIC>MOL_PROPERTY
W(PB)
SciTegic.value.DoubleValue
-62.557

@<SCITEGIC>MOL_PROPERTY
W(SA)
SciTegic.value.DoubleValue
2.328

@<SCITEGIC>MOL_PROPERTY
Valence
SciTegic.value.DoubleValue
7.101

@<SCITEGIC>MOL_PROPERTY
Coulomb
SciTegic.value.DoubleValue
-2.079

@<SCITEGIC>MOL_PROPERTY
VdW
SciTegic.value.DoubleValue
0.757

@<SCITEGIC>MOL_PROPERTY
VdW6
SciTegic.value.DoubleValue
-6.496

@<SCITEGIC>MOL_PROPERTY
VdW12
SciTegic.value.DoubleValue
7.253

@<SCITEGIC>MOL_PROPERTY
Bond
SciTegic.value.DoubleValue
0.100

@<SCITEGIC>MOL_PROPERTY
Angle
SciTegic.value.DoubleValue
2.262

@<SCITEGIC>MOL_PROPERTY
Pdih
SciTegic.value.DoubleValue
4.738

@<SCITEGIC>MOL_PROPERTY
Idih
SciTegic.value.DoubleValue
0.001

@<SCITEGIC>MOL_PROPERTY
Tether
SciTegic.value.DoubleValue
0.000

@<TRIPOS>MOLECULE
guest-s21_confgen4.mol2 : confsearch ligand conformer 843
          22          21           1
SMALL
USER_CHARGES
 
@<TRIPOS>ATOM
       1    C1      16.679189   16.907007   21.344994 C.2        1 MOL1         0.6145
       2    O1      16.819495   15.712755   21.519716 O.co2      1 MOL1        -0.6735
       3    O2      15.606511   17.474596   21.405512 O.co2      1 MOL1        -0.6735
       4    C2      17.920620   17.742890   21.054550 C.3        1 MOL1        -0.1985
       5    H1      17.627785   18.571387   20.398435 H          1 MOL1         0.0740
       6    H2      18.627561   17.119588   20.493849 H          1 MOL1         0.0740
       7    C3      18.591946   18.289647   22.338501 C.3        1 MOL1        -0.1882
       8    H3      17.867123   18.900165   22.894749 H          1 MOL1         0.0742
       9    H4      18.867750   17.448899   22.990135 H          1 MOL1         0.0742
      10    C4      19.845711   19.131952   22.017654 C.3        1 MOL1        -0.1880
      11    H5      19.566658   19.972705   21.367947 H          1 MOL1         0.0742
      12    H6      20.559486   18.515116   21.456223 H          1 MOL1         0.0742
      13    C5      20.514218   19.672303   23.302713 C.3        1 MOL1        -0.1880
      14    H7      19.768027   20.227464   23.887460 H          1 MOL1         0.0742
      15    H8      20.840365   18.832626   23.931605 H          1 MOL1         0.0742
      16    C6      21.714483   20.606936   23.024984 C.3        1 MOL1        -0.1856
      17    H9      22.054052   21.036919   23.977373 H          1 MOL1         0.0742
      18    H10     21.390624   21.451578   22.401281 H          1 MOL1         0.0742
      19    C7      22.904528   19.889964   22.351225 C.3        1 MOL1        -0.2871
      20    H11     23.759800   20.571568   22.257178 H          1 MOL1         0.0754
      21    H12     22.644723   19.542623   21.343475 H          1 MOL1         0.0754
      22    H13     23.226768   19.022958   22.942493 H          1 MOL1         0.0754
@<TRIPOS>BOND
    1     1     2    1
    2     1     3    2
    3     1     4    1
    4     4     5    1
    5     4     6    1
    6     4     7    1
    7     7     8    1
    8     7     9    1
    9     7    10    1
   10    10    11    1
   11    10    12    1
   12    10    13    1
   13    13    14    1
   14    13    15    1
   15    13    16    1
   16    16    17    1
   17    16    18    1
   18    16    19    1
   19    19    20    1
   20    19    21    1
   21    19    22    1
@<TRIPOS>SUBSTRUCTURE
       1 MOL1            1 RESIDUE      1      MOL     
@<SCITEGIC>MOL_PROPERTY
VConf Rank
SciTegic.value.IntegerValue
843

@<SCITEGIC>MOL_PROPERTY
Conf_Id
SciTegic.value.IntegerValue
37

@<SCITEGIC>MOL_PROPERTY
Delta U+W
SciTegic.value.DoubleValue
-0.345

@<SCITEGIC>MOL_PROPERTY
U+W
SciTegic.value.DoubleValue
-53.504

@<SCITEGIC>MOL_PROPERTY
Grad RMS
SciTegic.value.DoubleValue
0.000000

@<SCITEGIC>MOL_PROPERTY
U
SciTegic.value.DoubleValue
6.751

@<SCITEGIC>MOL_PROPERTY
W
SciTegic.value.DoubleValue
-60.255

@<SCITEGIC>MOL_PROPERTY
W(PB)
SciTegic.value.DoubleValue
-62.592

@<SCITEGIC>MOL_PROPERTY
W(SA)
SciTegic.value.DoubleValue
2.336

@<SCITEGIC>MOL_PROPERTY
Valence
SciTegic.value.DoubleValue
7.602

@<SCITEGIC>MOL_PROPERTY
Coulomb
SciTegic.value.DoubleValue
-1.744

@<SCITEGIC>MOL_PROPERTY
VdW
SciTegic.value.DoubleValue
0.894

@<SCITEGIC>MOL_PROPERTY
VdW6
SciTegic.value.DoubleValue
-7.110

@<SCITEGIC>MOL_PROPERTY
VdW12
SciTegic.value.DoubleValue
8.004

@<SCITEGIC>MOL_PROPERTY
Bond
SciTegic.value.DoubleValue
0.131

@<SCITEGIC>MOL_PROPERTY
Angle
SciTegic.value.DoubleValue
2.489

@<SCITEGIC>MOL_PROPERTY
Pdih
SciTegic.value.DoubleValue
4.982

@<SCITEGIC>MOL_PROPERTY
Idih
SciTegic.value.DoubleValue
0.001

@<SCITEGIC>MOL_PROPERTY
Tether
SciTegic.value.DoubleValue
0.000

@<TRIPOS>MOLECULE
guest-s21_confgen4.mol2 : confsearch ligand conformer 844
          22          21           1
SMALL
USER_CHARGES
 
@<TRIPOS>ATOM
       1    C1      23.538337   18.299658   21.407293 C.2        1 MOL1         0.6145
       2    O1      23.976649   19.030094   20.540808 O.co2      1 MOL1        -0.6735
       3    O2      23.975131   17.189047   21.635790 O.co2      1 MOL1        -0.6735
       4    C2      22.361114   18.795539   22.239435 C.3        1 MOL1        -0.1985
       5    H1      22.450702   19.883712   22.341954 H          1 MOL1         0.0740
       6    H2      22.449891   18.366778   23.244884 H          1 MOL1         0.0740
       7    C3      20.989752   18.428082   21.620971 C.3        1 MOL1        -0.1882
       8    H3      20.921504   18.854056   20.610310 H          1 MOL1         0.0742
       9    H4      20.921687   17.336692   21.512591 H          1 MOL1         0.0742
      10    C4      19.814903   18.940863   22.481862 C.3        1 MOL1        -0.1880
      11    H5      19.896620   20.030293   22.589713 H          1 MOL1         0.0742
      12    H6      19.884470   18.511723   23.490750 H          1 MOL1         0.0742
      13    C5      18.448352   18.574911   21.858259 C.3        1 MOL1        -0.1880
      14    H7      18.354708   19.044888   20.869679 H          1 MOL1         0.0742
      15    H8      18.410638   17.489669   21.691636 H          1 MOL1         0.0742
      16    C6      17.242893   18.978410   22.738809 C.3        1 MOL1        -0.1856
      17    H9      17.329777   18.504926   23.726520 H          1 MOL1         0.0742
      18    H10     16.325312   18.580615   22.283793 H          1 MOL1         0.0742
      19    C7      17.092406   20.505976   22.906464 C.3        1 MOL1        -0.2871
      20    H11     17.033836   21.004545   21.930179 H          1 MOL1         0.0754
      21    H12     17.936696   20.933322   23.461670 H          1 MOL1         0.0754
      22    H13     16.175849   20.742549   23.462232 H          1 MOL1         0.0754
@<TRIPOS>BOND
    1     1     2    1
    2     1     3    2
    3     1     4    1
    4     4     5    1
    5     4     6    1
    6     4     7    1
    7     7     8    1
    8     7     9    1
    9     7    10    1
   10    10    11    1
   11    10    12    1
   12    10    13    1
   13    13    14    1
   14    13    15    1
   15    13    16    1
   16    16    17    1
   17    16    18    1
   18    16    19    1
   19    19    20    1
   20    19    21    1
   21    19    22    1
@<TRIPOS>SUBSTRUCTURE
       1 MOL1            1 RESIDUE      1      MOL     
@<SCITEGIC>MOL_PROPERTY
VConf Rank
SciTegic.value.IntegerValue
844

@<SCITEGIC>MOL_PROPERTY
Conf_Id
SciTegic.value.IntegerValue
38

@<SCITEGIC>MOL_PROPERTY
Delta U+W
SciTegic.value.DoubleValue
-0.439

@<SCITEGIC>MOL_PROPERTY
U+W
SciTegic.value.DoubleValue
-53.598

@<SCITEGIC>MOL_PROPERTY
Grad RMS
SciTegic.value.DoubleValue
0.000000

@<SCITEGIC>MOL_PROPERTY
U
SciTegic.value.DoubleValue
6.751

@<SCITEGIC>MOL_PROPERTY
W
SciTegic.value.DoubleValue
-60.350

@<SCITEGIC>MOL_PROPERTY
W(PB)
SciTegic.value.DoubleValue
-62.659

@<SCITEGIC>MOL_PROPERTY
W(SA)
SciTegic.value.DoubleValue
2.309

@<SCITEGIC>MOL_PROPERTY
Valence
SciTegic.value.DoubleValue
7.602

@<SCITEGIC>MOL_PROPERTY
Coulomb
SciTegic.value.DoubleValue
-1.744

@<SCITEGIC>MOL_PROPERTY
VdW
SciTegic.value.DoubleValue
0.893

@<SCITEGIC>MOL_PROPERTY
VdW6
SciTegic.value.DoubleValue
-7.110

@<SCITEGIC>MOL_PROPERTY
VdW12
SciTegic.value.DoubleValue
8.004

@<SCITEGIC>MOL_PROPERTY
Bond
SciTegic.value.DoubleValue
0.131

@<SCITEGIC>MOL_PROPERTY
Angle
SciTegic.value.DoubleValue
2.489

@<SCITEGIC>MOL_PROPERTY
Pdih
SciTegic.value.DoubleValue
4.981

@<SCITEGIC>MOL_PROPERTY
Idih
SciTegic.value.DoubleValue
0.001

@<SCITEGIC>MOL_PROPERTY
Tether
SciTegic.value.DoubleValue
0.000

@<TRIPOS>MOLECULE
guest-s21_confgen4.mol2 : confsearch ligand conformer 845
          22          21           1
SMALL
USER_CHARGES
 
@<TRIPOS>ATOM
       1    C1      17.776001   16.712516   20.100056 C.2        1 MOL1         0.6145
       2    O1      17.676703   15.517767   20.298237 O.co2      1 MOL1        -0.6735
       3    O2      17.531074   17.240067   19.033177 O.co2      1 MOL1        -0.6735
       4    C2      18.256061   17.595087   21.246747 C.3        1 MOL1        -0.1985
       5    H1      17.906367   17.151437   22.186590 H          1 MOL1         0.0740
       6    H2      17.765488   18.569394   21.144151 H          1 MOL1         0.0740
       7    C3      19.798303   17.757591   21.273046 C.3        1 MOL1        -0.1882
       8    H3      20.256339   16.758776   21.277430 H          1 MOL1         0.0742
       9    H4      20.132231   18.247322   20.347870 H          1 MOL1         0.0742
      10    C4      20.318965   18.545103   22.499201 C.3        1 MOL1        -0.1880
      11    H5      21.414601   18.482649   22.502301 H          1 MOL1         0.0742
      12    H6      19.976376   18.057709   23.422103 H          1 MOL1         0.0742
      13    C5      19.888833   20.032717   22.502926 C.3        1 MOL1        -0.1880
      14    H7      20.229944   20.519521   21.579148 H          1 MOL1         0.0742
      15    H8      18.793393   20.096672   22.502906 H          1 MOL1         0.0742
      16    C6      20.413124   20.820441   23.726333 C.3        1 MOL1        -0.1856
      17    H9      20.083609   20.330041   24.652735 H          1 MOL1         0.0742
      18    H10     19.954284   21.818793   23.724154 H          1 MOL1         0.0742
      19    C7      21.948799   20.982139   23.740793 C.3        1 MOL1        -0.2871
      20    H11     22.453436   20.016128   23.865648 H          1 MOL1         0.0754
      21    H12     22.258416   21.627553   24.572957 H          1 MOL1         0.0754
      22    H13     22.304612   21.439413   22.808365 H          1 MOL1         0.0754
@<TRIPOS>BOND
    1     1     2    1
    2     1     3    2
    3     1     4    1
    4     4     5    1
    5     4     6    1
    6     4     7    1
    7     7     8    1
    8     7     9    1
    9     7    10    1
   10    10    11    1
   11    10    12    1
   12    10    13    1
   13    13    14    1
   14    13    15    1
   15    13    16    1
   16    16    17    1
   17    16    18    1
   18    16    19    1
   19    19    20    1
   20    19    21    1
   21    19    22    1
@<TRIPOS>SUBSTRUCTURE
       1 MOL1            1 RESIDUE      1      MOL     
@<SCITEGIC>MOL_PROPERTY
VConf Rank
SciTegic.value.IntegerValue
845

@<SCITEGIC>MOL_PROPERTY
Conf_Id
SciTegic.value.IntegerValue
60

@<SCITEGIC>MOL_PROPERTY
Delta U+W
SciTegic.value.DoubleValue
0.386

@<SCITEGIC>MOL_PROPERTY
U+W
SciTegic.value.DoubleValue
-52.773

@<SCITEGIC>MOL_PROPERTY
Grad RMS
SciTegic.value.DoubleValue
0.000000

@<SCITEGIC>MOL_PROPERTY
U
SciTegic.value.DoubleValue
7.689

@<SCITEGIC>MOL_PROPERTY
W
SciTegic.value.DoubleValue
-60.463

@<SCITEGIC>MOL_PROPERTY
W(PB)
SciTegic.value.DoubleValue
-62.772

@<SCITEGIC>MOL_PROPERTY
W(SA)
SciTegic.value.DoubleValue
2.309

@<SCITEGIC>MOL_PROPERTY
Valence
SciTegic.value.DoubleValue
8.197

@<SCITEGIC>MOL_PROPERTY
Coulomb
SciTegic.value.DoubleValue
-1.561

@<SCITEGIC>MOL_PROPERTY
VdW
SciTegic.value.DoubleValue
1.053

@<SCITEGIC>MOL_PROPERTY
VdW6
SciTegic.value.DoubleValue
-7.737

@<SCITEGIC>MOL_PROPERTY
VdW12
SciTegic.value.DoubleValue
8.790

@<SCITEGIC>MOL_PROPERTY
Bond
SciTegic.value.DoubleValue
0.181

@<SCITEGIC>MOL_PROPERTY
Angle
SciTegic.value.DoubleValue
2.780

@<SCITEGIC>MOL_PROPERTY
Pdih
SciTegic.value.DoubleValue
5.235

@<SCITEGIC>MOL_PROPERTY
Idih
SciTegic.value.DoubleValue
0.001

@<SCITEGIC>MOL_PROPERTY
Tether
SciTegic.value.DoubleValue
0.000

@<TRIPOS>MOLECULE
guest-s21_confgen4.mol2 : confsearch ligand conformer 846
          22          21           1
SMALL
USER_CHARGES
 
@<TRIPOS>ATOM
       1    C1      22.295628   16.699968   20.435027 C.2        1 MOL1         0.6145
       2    O1      23.434264   17.025520   20.707162 O.co2      1 MOL1        -0.6735
       3    O2      22.002683   16.017947   19.472950 O.co2      1 MOL1        -0.6735
       4    C2      21.170169   17.193098   21.337498 C.3        1 MOL1        -0.1985
       5    H1      21.563234   17.248913   22.358697 H          1 MOL1         0.0740
       6    H2      20.376118   16.436864   21.334755 H          1 MOL1         0.0740
       7    C3      20.602807   18.566253   20.892351 C.3        1 MOL1        -0.1882
       8    H3      21.394695   19.326083   20.945890 H          1 MOL1         0.0742
       9    H4      20.309353   18.498743   19.835575 H          1 MOL1         0.0742
      10    C4      19.377452   19.028642   21.716622 C.3        1 MOL1        -0.1880
      11    H5      18.591029   18.263258   21.667700 H          1 MOL1         0.0742
      12    H6      18.967144   19.927639   21.239359 H          1 MOL1         0.0742
      13    C5      19.712955   19.339620   23.196063 C.3        1 MOL1        -0.1880
      14    H7      20.120424   18.440585   23.675420 H          1 MOL1         0.0742
      15    H8      20.500730   20.103646   23.244815 H          1 MOL1         0.0742
      16    C6      18.488860   19.806063   24.018337 C.3        1 MOL1        -0.1856
      17    H9      18.780421   19.871856   25.075649 H          1 MOL1         0.0742
      18    H10     17.693991   19.049508   23.962641 H          1 MOL1         0.0742
      19    C7      17.935076   21.176732   23.571969 C.3        1 MOL1        -0.2871
      20    H11     18.721863   21.942157   23.586695 H          1 MOL1         0.0754
      21    H12     17.132986   21.504014   24.246103 H          1 MOL1         0.0754
      22    H13     17.517569   21.130771   22.558559 H          1 MOL1         0.0754
@<TRIPOS>BOND
    1     1     2    1
    2     1     3    2
    3     1     4    1
    4     4     5    1
    5     4     6    1
    6     4     7    1
    7     7     8    1
    8     7     9    1
    9     7    10    1
   10    10    11    1
   11    10    12    1
   12    10    13    1
   13    13    14    1
   14    13    15    1
   15    13    16    1
   16    16    17    1
   17    16    18    1
   18    16    19    1
   19    19    20    1
   20    19    21    1
   21    19    22    1
@<TRIPOS>SUBSTRUCTURE
       1 MOL1            1 RESIDUE      1      MOL     
@<SCITEGIC>MOL_PROPERTY
VConf Rank
SciTegic.value.IntegerValue
846

@<SCITEGIC>MOL_PROPERTY
Conf_Id
SciTegic.value.IntegerValue
28

@<SCITEGIC>MOL_PROPERTY
Delta U+W
SciTegic.value.DoubleValue
0.351

@<SCITEGIC>MOL_PROPERTY
U+W
SciTegic.value.DoubleValue
-52.808

@<SCITEGIC>MOL_PROPERTY
Grad RMS
SciTegic.value.DoubleValue
0.000000

@<SCITEGIC>MOL_PROPERTY
U
SciTegic.value.DoubleValue
7.689

@<SCITEGIC>MOL_PROPERTY
W
SciTegic.value.DoubleValue
-60.498

@<SCITEGIC>MOL_PROPERTY
W(PB)
SciTegic.value.DoubleValue
-62.768

@<SCITEGIC>MOL_PROPERTY
W(SA)
SciTegic.value.DoubleValue
2.270

@<SCITEGIC>MOL_PROPERTY
Valence
SciTegic.value.DoubleValue
8.197

@<SCITEGIC>MOL_PROPERTY
Coulomb
SciTegic.value.DoubleValue
-1.561

@<SCITEGIC>MOL_PROPERTY
VdW
SciTegic.value.DoubleValue
1.053

@<SCITEGIC>MOL_PROPERTY
VdW6
SciTegic.value.DoubleValue
-7.737

@<SCITEGIC>MOL_PROPERTY
VdW12
SciTegic.value.DoubleValue
8.791

@<SCITEGIC>MOL_PROPERTY
Bond
SciTegic.value.DoubleValue
0.181

@<SCITEGIC>MOL_PROPERTY
Angle
SciTegic.value.DoubleValue
2.780

@<SCITEGIC>MOL_PROPERTY
Pdih
SciTegic.value.DoubleValue
5.235

@<SCITEGIC>MOL_PROPERTY
Idih
SciTegic.value.DoubleValue
0.001

@<SCITEGIC>MOL_PROPERTY
Tether
SciTegic.value.DoubleValue
0.000

@<TRIPOS>MOLECULE
guest-s21_confgen4.mol2 : confsearch ligand conformer 847
          22          21           1
SMALL
USER_CHARGES
 
@<TRIPOS>ATOM
       1    C1      20.630982   20.209922   25.686319 C.2        1 MOL1         0.6145
       2    O1      20.746123   21.414377   25.798132 O.co2      1 MOL1        -0.6735
       3    O2      20.029151   19.514737   26.480656 O.co2      1 MOL1        -0.6735
       4    C2      21.259506   19.536305   24.471609 C.3        1 MOL1        -0.1985
       5    H1      21.573380   18.527522   24.765699 H          1 MOL1         0.0740
       6    H2      22.165761   20.093039   24.204466 H          1 MOL1         0.0740
       7    C3      20.298573   19.464312   23.259292 C.3        1 MOL1        -0.1882
       8    H3      19.392211   18.920936   23.557150 H          1 MOL1         0.0742
       9    H4      19.986658   20.480988   22.982915 H          1 MOL1         0.0742
      10    C4      20.959419   18.772899   22.044265 C.3        1 MOL1        -0.1880
      11    H5      21.223629   17.738757   22.304520 H          1 MOL1         0.0742
      12    H6      21.902794   19.285552   21.811472 H          1 MOL1         0.0742
      13    C5      20.073808   18.777379   20.775709 C.3        1 MOL1        -0.1880
      14    H7      19.812719   19.811604   20.512756 H          1 MOL1         0.0742
      15    H8      20.664757   18.383702   19.937422 H          1 MOL1         0.0742
      16    C6      18.785869   17.935533   20.919928 C.3        1 MOL1        -0.1856
      17    H9      18.142284   18.359224   21.702004 H          1 MOL1         0.0742
      18    H10     19.043507   16.914758   21.234329 H          1 MOL1         0.0742
      19    C7      17.995959   17.879682   19.596813 C.3        1 MOL1        -0.2871
      20    H11     18.597084   17.424641   18.798726 H          1 MOL1         0.0754
      21    H12     17.701449   18.886509   19.272854 H          1 MOL1         0.0754
      22    H13     17.083273   17.281512   19.716252 H          1 MOL1         0.0754
@<TRIPOS>BOND
    1     1     2    1
    2     1     3    2
    3     1     4    1
    4     4     5    1
    5     4     6    1
    6     4     7    1
    7     7     8    1
    8     7     9    1
    9     7    10    1
   10    10    11    1
   11    10    12    1
   12    10    13    1
   13    13    14    1
   14    13    15    1
   15    13    16    1
   16    16    17    1
   17    16    18    1
   18    16    19    1
   19    19    20    1
   20    19    21    1
   21    19    22    1
@<TRIPOS>SUBSTRUCTURE
       1 MOL1            1 RESIDUE      1      MOL     
@<SCITEGIC>MOL_PROPERTY
VConf Rank
SciTegic.value.IntegerValue
847

@<SCITEGIC>MOL_PROPERTY
Conf_Id
SciTegic.value.IntegerValue
50

@<SCITEGIC>MOL_PROPERTY
Delta U+W
SciTegic.value.DoubleValue
-0.486

@<SCITEGIC>MOL_PROPERTY
U+W
SciTegic.value.DoubleValue
-53.646

@<SCITEGIC>MOL_PROPERTY
Grad RMS
SciTegic.value.DoubleValue
0.000000

@<SCITEGIC>MOL_PROPERTY
U
SciTegic.value.DoubleValue
7.026

@<SCITEGIC>MOL_PROPERTY
W
SciTegic.value.DoubleValue
-60.672

@<SCITEGIC>MOL_PROPERTY
W(PB)
SciTegic.value.DoubleValue
-62.964

@<SCITEGIC>MOL_PROPERTY
W(SA)
SciTegic.value.DoubleValue
2.292

@<SCITEGIC>MOL_PROPERTY
Valence
SciTegic.value.DoubleValue
7.637

@<SCITEGIC>MOL_PROPERTY
Coulomb
SciTegic.value.DoubleValue
-1.488

@<SCITEGIC>MOL_PROPERTY
VdW
SciTegic.value.DoubleValue
0.877

@<SCITEGIC>MOL_PROPERTY
VdW6
SciTegic.value.DoubleValue
-7.165

@<SCITEGIC>MOL_PROPERTY
VdW12
SciTegic.value.DoubleValue
8.043

@<SCITEGIC>MOL_PROPERTY
Bond
SciTegic.value.DoubleValue
0.134

@<SCITEGIC>MOL_PROPERTY
Angle
SciTegic.value.DoubleValue
2.513

@<SCITEGIC>MOL_PROPERTY
Pdih
SciTegic.value.DoubleValue
4.990

@<SCITEGIC>MOL_PROPERTY
Idih
SciTegic.value.DoubleValue
0.001

@<SCITEGIC>MOL_PROPERTY
Tether
SciTegic.value.DoubleValue
0.000

@<TRIPOS>MOLECULE
guest-s21_confgen4.mol2 : confsearch ligand conformer 848
          22          21           1
SMALL
USER_CHARGES
 
@<TRIPOS>ATOM
       1    C1      19.089970   17.497023   18.910142 C.2        1 MOL1         0.6145
       2    O1      18.691514   18.241751   18.036595 O.co2      1 MOL1        -0.6735
       3    O2      18.649396   16.379768   19.094780 O.co2      1 MOL1        -0.6735
       4    C2      20.189438   17.999997   19.838859 C.3        1 MOL1        -0.1985
       5    H1      20.836917   18.674593   19.265880 H          1 MOL1         0.0740
       6    H2      20.801140   17.140854   20.139431 H          1 MOL1         0.0740
       7    C3      19.635136   18.724644   21.090232 C.3        1 MOL1        -0.1882
       8    H3      19.017952   19.576341   20.772428 H          1 MOL1         0.0742
       9    H4      18.975489   18.036621   21.635171 H          1 MOL1         0.0742
      10    C4      20.770540   19.219745   22.015867 C.3        1 MOL1        -0.1880
      11    H5      21.460561   19.843948   21.431739 H          1 MOL1         0.0742
      12    H6      21.355851   18.362551   22.375893 H          1 MOL1         0.0742
      13    C5      20.265793   20.045558   23.222857 C.3        1 MOL1        -0.1880
      14    H7      21.136453   20.459012   23.750051 H          1 MOL1         0.0742
      15    H8      19.683757   20.905083   22.863159 H          1 MOL1         0.0742
      16    C6      19.419063   19.224088   24.221119 C.3        1 MOL1        -0.1856
      17    H9      19.981110   18.335716   24.540658 H          1 MOL1         0.0742
      18    H10     18.502303   18.865838   23.734738 H          1 MOL1         0.0742
      19    C7      19.035754   20.059960   25.458903 C.3        1 MOL1        -0.2871
      20    H11     18.448523   20.941635   25.170470 H          1 MOL1         0.0754
      21    H12     19.930707   20.403852   25.993838 H          1 MOL1         0.0754
      22    H13     18.432501   19.464182   26.156186 H          1 MOL1         0.0754
@<TRIPOS>BOND
    1     1     2    1
    2     1     3    2
    3     1     4    1
    4     4     5    1
    5     4     6    1
    6     4     7    1
    7     7     8    1
    8     7     9    1
    9     7    10    1
   10    10    11    1
   11    10    12    1
   12    10    13    1
   13    13    14    1
   14    13    15    1
   15    13    16    1
   16    16    17    1
   17    16    18    1
   18    16    19    1
   19    19    20    1
   20    19    21    1
   21    19    22    1
@<TRIPOS>SUBSTRUCTURE
       1 MOL1            1 RESIDUE      1      MOL     
@<SCITEGIC>MOL_PROPERTY
VConf Rank
SciTegic.value.IntegerValue
848

@<SCITEGIC>MOL_PROPERTY
Conf_Id
SciTegic.value.IntegerValue
51

@<SCITEGIC>MOL_PROPERTY
Delta U+W
SciTegic.value.DoubleValue
-0.517

@<SCITEGIC>MOL_PROPERTY
U+W
SciTegic.value.DoubleValue
-53.677

@<SCITEGIC>MOL_PROPERTY
Grad RMS
SciTegic.value.DoubleValue
0.000000

@<SCITEGIC>MOL_PROPERTY
U
SciTegic.value.DoubleValue
7.026

@<SCITEGIC>MOL_PROPERTY
W
SciTegic.value.DoubleValue
-60.703

@<SCITEGIC>MOL_PROPERTY
W(PB)
SciTegic.value.DoubleValue
-63.007

@<SCITEGIC>MOL_PROPERTY
W(SA)
SciTegic.value.DoubleValue
2.304

@<SCITEGIC>MOL_PROPERTY
Valence
SciTegic.value.DoubleValue
7.638

@<SCITEGIC>MOL_PROPERTY
Coulomb
SciTegic.value.DoubleValue
-1.488

@<SCITEGIC>MOL_PROPERTY
VdW
SciTegic.value.DoubleValue
0.877

@<SCITEGIC>MOL_PROPERTY
VdW6
SciTegic.value.DoubleValue
-7.165

@<SCITEGIC>MOL_PROPERTY
VdW12
SciTegic.value.DoubleValue
8.042

@<SCITEGIC>MOL_PROPERTY
Bond
SciTegic.value.DoubleValue
0.134

@<SCITEGIC>MOL_PROPERTY
Angle
SciTegic.value.DoubleValue
2.513

@<SCITEGIC>MOL_PROPERTY
Pdih
SciTegic.value.DoubleValue
4.990

@<SCITEGIC>MOL_PROPERTY
Idih
SciTegic.value.DoubleValue
0.001

@<SCITEGIC>MOL_PROPERTY
Tether
SciTegic.value.DoubleValue
0.000

@<TRIPOS>MOLECULE
guest-s21_confgen4.mol2 : confsearch ligand conformer 849
          22          21           1
SMALL
USER_CHARGES
 
@<TRIPOS>ATOM
       1    C1      18.291212   19.017948   19.326784 C.2        1 MOL1         0.6145
       2    O1      17.142061   19.397647   19.437153 O.co2      1 MOL1        -0.6735
       3    O2      19.135254   19.608022   18.681651 O.co2      1 MOL1        -0.6735
       4    C2      18.688977   17.718718   20.021708 C.3        1 MOL1        -0.1985
       5    H1      19.610351   17.342768   19.560581 H          1 MOL1         0.0740
       6    H2      17.905270   16.981309   19.811775 H          1 MOL1         0.0740
       7    C3      18.874606   17.854900   21.555328 C.3        1 MOL1        -0.1882
       8    H3      17.953841   18.258710   21.998930 H          1 MOL1         0.0742
       9    H4      19.021436   16.855450   21.986700 H          1 MOL1         0.0742
      10    C4      20.074319   18.753217   21.931229 C.3        1 MOL1        -0.1880
      11    H5      19.926525   19.760371   21.517459 H          1 MOL1         0.0742
      12    H6      20.989840   18.352743   21.474658 H          1 MOL1         0.0742
      13    C5      20.259467   18.849269   23.460917 C.3        1 MOL1        -0.1880
      14    H7      19.343567   19.249844   23.916738 H          1 MOL1         0.0742
      15    H8      20.410318   17.843581   23.876722 H          1 MOL1         0.0742
      16    C6      21.456915   19.746849   23.837102 C.3        1 MOL1        -0.1856
      17    H9      21.308646   20.754375   23.424295 H          1 MOL1         0.0742
      18    H10     22.375336   19.348276   23.384217 H          1 MOL1         0.0742
      19    C7      21.638292   19.840899   25.365373 C.3        1 MOL1        -0.2871
      20    H11     20.745135   20.266385   25.841432 H          1 MOL1         0.0754
      21    H12     22.493435   20.482499   25.614701 H          1 MOL1         0.0754
      22    H13     21.819830   18.849646   25.801100 H          1 MOL1         0.0754
@<TRIPOS>BOND
    1     1     2    1
    2     1     3    2
    3     1     4    1
    4     4     5    1
    5     4     6    1
    6     4     7    1
    7     7     8    1
    8     7     9    1
    9     7    10    1
   10    10    11    1
   11    10    12    1
   12    10    13    1
   13    13    14    1
   14    13    15    1
   15    13    16    1
   16    16    17    1
   17    16    18    1
   18    16    19    1
   19    19    20    1
   20    19    21    1
   21    19    22    1
@<TRIPOS>SUBSTRUCTURE
       1 MOL1            1 RESIDUE      1      MOL     
@<SCITEGIC>MOL_PROPERTY
VConf Rank
SciTegic.value.IntegerValue
849

@<SCITEGIC>MOL_PROPERTY
Conf_Id
SciTegic.value.IntegerValue
43

@<SCITEGIC>MOL_PROPERTY
Delta U+W
SciTegic.value.DoubleValue
-0.129

@<SCITEGIC>MOL_PROPERTY
U+W
SciTegic.value.DoubleValue
-53.289

@<SCITEGIC>MOL_PROPERTY
Grad RMS
SciTegic.value.DoubleValue
0.000000

@<SCITEGIC>MOL_PROPERTY
U
SciTegic.value.DoubleValue
7.937

@<SCITEGIC>MOL_PROPERTY
W
SciTegic.value.DoubleValue
-61.225

@<SCITEGIC>MOL_PROPERTY
W(PB)
SciTegic.value.DoubleValue
-63.523

@<SCITEGIC>MOL_PROPERTY
W(SA)
SciTegic.value.DoubleValue
2.297

@<SCITEGIC>MOL_PROPERTY
Valence
SciTegic.value.DoubleValue
7.358

@<SCITEGIC>MOL_PROPERTY
Coulomb
SciTegic.value.DoubleValue
-0.022

@<SCITEGIC>MOL_PROPERTY
VdW
SciTegic.value.DoubleValue
0.601

@<SCITEGIC>MOL_PROPERTY
VdW6
SciTegic.value.DoubleValue
-7.363

@<SCITEGIC>MOL_PROPERTY
VdW12
SciTegic.value.DoubleValue
7.964

@<SCITEGIC>MOL_PROPERTY
Bond
SciTegic.value.DoubleValue
0.121

@<SCITEGIC>MOL_PROPERTY
Angle
SciTegic.value.DoubleValue
2.425

@<SCITEGIC>MOL_PROPERTY
Pdih
SciTegic.value.DoubleValue
4.811

@<SCITEGIC>MOL_PROPERTY
Idih
SciTegic.value.DoubleValue
0.000

@<SCITEGIC>MOL_PROPERTY
Tether
SciTegic.value.DoubleValue
0.000

@<TRIPOS>MOLECULE
guest-s21_confgen4.mol2 : confsearch ligand conformer 850
          22          21           1
SMALL
USER_CHARGES
 
@<TRIPOS>ATOM
       1    C1      21.351707   16.118582   23.095203 C.2        1 MOL1         0.6145
       2    O1      21.787075   16.088357   24.229418 O.co2      1 MOL1        -0.6735
       3    O2      22.051789   16.050051   22.104254 O.co2      1 MOL1        -0.6735
       4    C2      19.841253   16.230288   22.907640 C.3        1 MOL1        -0.1985
       5    H1      19.371787   15.517199   23.595496 H          1 MOL1         0.0740
       6    H2      19.589457   15.903785   21.891324 H          1 MOL1         0.0740
       7    C3      19.276478   17.650721   23.169171 C.3        1 MOL1        -0.1882
       8    H3      18.179112   17.607437   23.147818 H          1 MOL1         0.0742
       9    H4      19.560623   17.974913   24.180018 H          1 MOL1         0.0742
      10    C4      19.765742   18.685212   22.130885 C.3        1 MOL1        -0.1880
      11    H5      19.490828   18.350093   21.121364 H          1 MOL1         0.0742
      12    H6      20.862498   18.746756   22.158217 H          1 MOL1         0.0742
      13    C5      19.166900   20.084092   22.391612 C.3        1 MOL1        -0.1880
      14    H7      18.070190   20.025734   22.361951 H          1 MOL1         0.0742
      15    H8      19.442289   20.418521   23.401279 H          1 MOL1         0.0742
      16    C6      19.655662   21.117907   21.355568 C.3        1 MOL1        -0.1856
      17    H9      19.380486   20.787533   20.344335 H          1 MOL1         0.0742
      18    H10     20.752393   21.180331   21.383629 H          1 MOL1         0.0742
      19    C7      19.056109   22.513703   21.619480 C.3        1 MOL1        -0.2871
      20    H11     17.959831   22.486772   21.566150 H          1 MOL1         0.0754
      21    H12     19.414058   23.235739   20.874079 H          1 MOL1         0.0754
      22    H13     19.342118   22.882512   22.613250 H          1 MOL1         0.0754
@<TRIPOS>BOND
    1     1     2    1
    2     1     3    2
    3     1     4    1
    4     4     5    1
    5     4     6    1
    6     4     7    1
    7     7     8    1
    8     7     9    1
    9     7    10    1
   10    10    11    1
   11    10    12    1
   12    10    13    1
   13    13    14    1
   14    13    15    1
   15    13    16    1
   16    16    17    1
   17    16    18    1
   18    16    19    1
   19    19    20    1
   20    19    21    1
   21    19    22    1
@<TRIPOS>SUBSTRUCTURE
       1 MOL1            1 RESIDUE      1      MOL     
@<SCITEGIC>MOL_PROPERTY
VConf Rank
SciTegic.value.IntegerValue
850

@<SCITEGIC>MOL_PROPERTY
Conf_Id
SciTegic.value.IntegerValue
44

@<SCITEGIC>MOL_PROPERTY
Delta U+W
SciTegic.value.DoubleValue
-0.155

@<SCITEGIC>MOL_PROPERTY
U+W
SciTegic.value.DoubleValue
-53.314

@<SCITEGIC>MOL_PROPERTY
Grad RMS
SciTegic.value.DoubleValue
0.000000

@<SCITEGIC>MOL_PROPERTY
U
SciTegic.value.DoubleValue
7.937

@<SCITEGIC>MOL_PROPERTY
W
SciTegic.value.DoubleValue
-61.252

@<SCITEGIC>MOL_PROPERTY
W(PB)
SciTegic.value.DoubleValue
-63.556

@<SCITEGIC>MOL_PROPERTY
W(SA)
SciTegic.value.DoubleValue
2.304

@<SCITEGIC>MOL_PROPERTY
Valence
SciTegic.value.DoubleValue
7.358

@<SCITEGIC>MOL_PROPERTY
Coulomb
SciTegic.value.DoubleValue
-0.021

@<SCITEGIC>MOL_PROPERTY
VdW
SciTegic.value.DoubleValue
0.600

@<SCITEGIC>MOL_PROPERTY
VdW6
SciTegic.value.DoubleValue
-7.363

@<SCITEGIC>MOL_PROPERTY
VdW12
SciTegic.value.DoubleValue
7.964

@<SCITEGIC>MOL_PROPERTY
Bond
SciTegic.value.DoubleValue
0.121

@<SCITEGIC>MOL_PROPERTY
Angle
SciTegic.value.DoubleValue
2.425

@<SCITEGIC>MOL_PROPERTY
Pdih
SciTegic.value.DoubleValue
4.811

@<SCITEGIC>MOL_PROPERTY
Idih
SciTegic.value.DoubleValue
0.001

@<SCITEGIC>MOL_PROPERTY
Tether
SciTegic.value.DoubleValue
0.000

@<TRIPOS>MOLECULE
guest-s21_confgen4.mol2 : confsearch ligand conformer 851
          22          21           1
SMALL
USER_CHARGES
 
@<TRIPOS>ATOM
       1    C1      21.343459   20.997801   24.768317 C.2        1 MOL1         0.6145
       2    O1      20.583662   21.281569   25.673363 O.co2      1 MOL1        -0.6735
       3    O2      22.032893   21.813647   24.188711 O.co2      1 MOL1        -0.6735
       4    C2      21.450251   19.533547   24.351345 C.3        1 MOL1        -0.1985
       5    H1      21.535119   18.937966   25.267921 H          1 MOL1         0.0740
       6    H2      22.385143   19.394670   23.794947 H          1 MOL1         0.0740
       7    C3      20.248140   19.025041   23.513503 C.3        1 MOL1        -0.1882
       8    H3      20.340635   17.937742   23.397783 H          1 MOL1         0.0742
       9    H4      19.316239   19.207586   24.066349 H          1 MOL1         0.0742
      10    C4      20.170888   19.693147   22.119631 C.3        1 MOL1        -0.1880
      11    H5      21.085790   19.474184   21.552347 H          1 MOL1         0.0742
      12    H6      20.138350   20.784202   22.244258 H          1 MOL1         0.0742
      13    C5      18.934236   19.261102   21.296313 C.3        1 MOL1        -0.1880
      14    H7      18.019568   19.480055   21.864079 H          1 MOL1         0.0742
      15    H8      18.889947   19.876472   20.387323 H          1 MOL1         0.0742
      16    C6      18.952001   17.769862   20.890958 C.3        1 MOL1        -0.1856
      17    H9      18.914993   17.133827   21.784996 H          1 MOL1         0.0742
      18    H10     19.891673   17.538334   20.370759 H          1 MOL1         0.0742
      19    C7      17.760899   17.418448   19.976889 C.3        1 MOL1        -0.2871
      20    H11     16.806610   17.615034   20.482922 H          1 MOL1         0.0754
      21    H12     17.785607   16.356314   19.700622 H          1 MOL1         0.0754
      22    H13     17.786957   18.009604   19.052111 H          1 MOL1         0.0754
@<TRIPOS>BOND
    1     1     2    1
    2     1     3    2
    3     1     4    1
    4     4     5    1
    5     4     6    1
    6     4     7    1
    7     7     8    1
    8     7     9    1
    9     7    10    1
   10    10    11    1
   11    10    12    1
   12    10    13    1
   13    13    14    1
   14    13    15    1
   15    13    16    1
   16    16    17    1
   17    16    18    1
   18    16    19    1
   19    19    20    1
   20    19    21    1
   21    19    22    1
@<TRIPOS>SUBSTRUCTURE
       1 MOL1            1 RESIDUE      1      MOL     
@<SCITEGIC>MOL_PROPERTY
VConf Rank
SciTegic.value.IntegerValue
851

@<SCITEGIC>MOL_PROPERTY
Conf_Id
SciTegic.value.IntegerValue
53

@<SCITEGIC>MOL_PROPERTY
Delta U+W
SciTegic.value.DoubleValue
0.723

@<SCITEGIC>MOL_PROPERTY
U+W
SciTegic.value.DoubleValue
-52.436

@<SCITEGIC>MOL_PROPERTY
Grad RMS
SciTegic.value.DoubleValue
0.000000

@<SCITEGIC>MOL_PROPERTY
U
SciTegic.value.DoubleValue
8.587

@<SCITEGIC>MOL_PROPERTY
W
SciTegic.value.DoubleValue
-61.022

@<SCITEGIC>MOL_PROPERTY
W(PB)
SciTegic.value.DoubleValue
-63.285

@<SCITEGIC>MOL_PROPERTY
W(SA)
SciTegic.value.DoubleValue
2.263

@<SCITEGIC>MOL_PROPERTY
Valence
SciTegic.value.DoubleValue
7.933

@<SCITEGIC>MOL_PROPERTY
Coulomb
SciTegic.value.DoubleValue
-0.124

@<SCITEGIC>MOL_PROPERTY
VdW
SciTegic.value.DoubleValue
0.778

@<SCITEGIC>MOL_PROPERTY
VdW6
SciTegic.value.DoubleValue
-7.981

@<SCITEGIC>MOL_PROPERTY
VdW12
SciTegic.value.DoubleValue
8.759

@<SCITEGIC>MOL_PROPERTY
Bond
SciTegic.value.DoubleValue
0.160

@<SCITEGIC>MOL_PROPERTY
Angle
SciTegic.value.DoubleValue
2.698

@<SCITEGIC>MOL_PROPERTY
Pdih
SciTegic.value.DoubleValue
5.074

@<SCITEGIC>MOL_PROPERTY
Idih
SciTegic.value.DoubleValue
0.001

@<SCITEGIC>MOL_PROPERTY
Tether
SciTegic.value.DoubleValue
0.000

@<TRIPOS>MOLECULE
guest-s21_confgen4.mol2 : confsearch ligand conformer 852
          22          21           1
SMALL
USER_CHARGES
 
@<TRIPOS>ATOM
       1    C1      19.516739   16.169703   24.133048 C.2        1 MOL1         0.6145
       2    O1      18.400060   16.096727   24.606620 O.co2      1 MOL1        -0.6735
       3    O2      20.354623   15.297238   24.248534 O.co2      1 MOL1        -0.6735
       4    C2      19.879388   17.414396   23.331035 C.3        1 MOL1        -0.1985
       5    H1      20.954359   17.595203   23.449468 H          1 MOL1         0.0740
       6    H2      19.349925   18.262813   23.778904 H          1 MOL1         0.0740
       7    C3      19.519184   17.286843   21.829330 C.3        1 MOL1        -0.1882
       8    H3      19.951598   16.353998   21.441723 H          1 MOL1         0.0742
       9    H4      18.429872   17.186534   21.726404 H          1 MOL1         0.0742
      10    C4      20.017845   18.461641   20.950778 C.3        1 MOL1        -0.1880
      11    H5      19.746750   18.234656   19.910619 H          1 MOL1         0.0742
      12    H6      21.115336   18.507644   20.969564 H          1 MOL1         0.0742
      13    C5      19.415545   19.842060   21.315998 C.3        1 MOL1        -0.1880
      14    H7      19.258286   20.409500   20.388488 H          1 MOL1         0.0742
      15    H8      18.422193   19.713069   21.767191 H          1 MOL1         0.0742
      16    C6      20.324040   20.681138   22.244082 C.3        1 MOL1        -0.1856
      17    H9      21.293129   20.850167   21.754705 H          1 MOL1         0.0742
      18    H10     20.532672   20.138787   23.173971 H          1 MOL1         0.0742
      19    C7      19.682235   22.041109   22.584518 C.3        1 MOL1        -0.2871
      20    H11     19.497535   22.627432   21.674878 H          1 MOL1         0.0754
      21    H12     20.341615   22.627378   23.237620 H          1 MOL1         0.0754
      22    H13     18.725060   21.903832   23.104449 H          1 MOL1         0.0754
@<TRIPOS>BOND
    1     1     2    1
    2     1     3    2
    3     1     4    1
    4     4     5    1
    5     4     6    1
    6     4     7    1
    7     7     8    1
    8     7     9    1
    9     7    10    1
   10    10    11    1
   11    10    12    1
   12    10    13    1
   13    13    14    1
   14    13    15    1
   15    13    16    1
   16    16    17    1
   17    16    18    1
   18    16    19    1
   19    19    20    1
   20    19    21    1
   21    19    22    1
@<TRIPOS>SUBSTRUCTURE
       1 MOL1            1 RESIDUE      1      MOL     
@<SCITEGIC>MOL_PROPERTY
VConf Rank
SciTegic.value.IntegerValue
852

@<SCITEGIC>MOL_PROPERTY
Conf_Id
SciTegic.value.IntegerValue
5

@<SCITEGIC>MOL_PROPERTY
Delta U+W
SciTegic.value.DoubleValue
2.167

@<SCITEGIC>MOL_PROPERTY
U+W
SciTegic.value.DoubleValue
-50.993

@<SCITEGIC>MOL_PROPERTY
Grad RMS
SciTegic.value.DoubleValue
0.000000

@<SCITEGIC>MOL_PROPERTY
U
SciTegic.value.DoubleValue
10.045

@<SCITEGIC>MOL_PROPERTY
W
SciTegic.value.DoubleValue
-61.037

@<SCITEGIC>MOL_PROPERTY
W(PB)
SciTegic.value.DoubleValue
-63.303

@<SCITEGIC>MOL_PROPERTY
W(SA)
SciTegic.value.DoubleValue
2.266

@<SCITEGIC>MOL_PROPERTY
Valence
SciTegic.value.DoubleValue
10.100

@<SCITEGIC>MOL_PROPERTY
Coulomb
SciTegic.value.DoubleValue
-0.883

@<SCITEGIC>MOL_PROPERTY
VdW
SciTegic.value.DoubleValue
0.828

@<SCITEGIC>MOL_PROPERTY
VdW6
SciTegic.value.DoubleValue
-8.177

@<SCITEGIC>MOL_PROPERTY
VdW12
SciTegic.value.DoubleValue
9.005

@<SCITEGIC>MOL_PROPERTY
Bond
SciTegic.value.DoubleValue
0.182

@<SCITEGIC>MOL_PROPERTY
Angle
SciTegic.value.DoubleValue
2.988

@<SCITEGIC>MOL_PROPERTY
Pdih
SciTegic.value.DoubleValue
6.930

@<SCITEGIC>MOL_PROPERTY
Idih
SciTegic.value.DoubleValue
0.001

@<SCITEGIC>MOL_PROPERTY
Tether
SciTegic.value.DoubleValue
0.000

@<TRIPOS>MOLECULE
guest-s21_confgen4.mol2 : confsearch ligand conformer 853
          22          21           1
SMALL
USER_CHARGES
 
@<TRIPOS>ATOM
       1    C1      22.093158   17.777473   20.116260 C.2        1 MOL1         0.6145
       2    O1      23.012787   17.245316   20.705889 O.co2      1 MOL1        -0.6735
       3    O2      22.063904   17.926954   18.910697 O.co2      1 MOL1        -0.6735
       4    C2      20.922042   18.307224   20.935926 C.3        1 MOL1        -0.1985
       5    H1      20.791117   17.640514   21.795628 H          1 MOL1         0.0740
       6    H2      20.016467   18.237051   20.321687 H          1 MOL1         0.0740
       7    C3      21.134679   19.766018   21.413260 C.3        1 MOL1        -0.1882
       8    H3      21.998714   19.801988   22.091053 H          1 MOL1         0.0742
       9    H4      21.399302   20.385345   20.545025 H          1 MOL1         0.0742
      10    C4      19.902212   20.396553   22.109047 C.3        1 MOL1        -0.1880
      11    H5      19.060477   20.455138   21.405482 H          1 MOL1         0.0742
      12    H6      20.157769   21.436247   22.355367 H          1 MOL1         0.0742
      13    C5      19.463462   19.685472   23.414258 C.3        1 MOL1        -0.1880
      14    H7      20.326809   19.197191   23.886673 H          1 MOL1         0.0742
      15    H8      19.116393   20.447238   24.125769 H          1 MOL1         0.0742
      16    C6      18.318160   18.668400   23.203055 C.3        1 MOL1        -0.1856
      17    H9      18.610691   17.902796   22.474604 H          1 MOL1         0.0742
      18    H10     17.442600   19.182914   22.783691 H          1 MOL1         0.0742
      19    C7      17.919992   17.982822   24.525468 C.3        1 MOL1        -0.2871
      20    H11     18.768390   17.432365   24.952756 H          1 MOL1         0.0754
      21    H12     17.101878   17.269728   24.360482 H          1 MOL1         0.0754
      22    H13     17.582467   18.720831   25.264896 H          1 MOL1         0.0754
@<TRIPOS>BOND
    1     1     2    1
    2     1     3    2
    3     1     4    1
    4     4     5    1
    5     4     6    1
    6     4     7    1
    7     7     8    1
    8     7     9    1
    9     7    10    1
   10    10    11    1
   11    10    12    1
   12    10    13    1
   13    13    14    1
   14    13    15    1
   15    13    16    1
   16    16    17    1
   17    16    18    1
   18    16    19    1
   19    19    20    1
   20    19    21    1
   21    19    22    1
@<TRIPOS>SUBSTRUCTURE
       1 MOL1            1 RESIDUE      1      MOL     
@<SCITEGIC>MOL_PROPERTY
VConf Rank
SciTegic.value.IntegerValue
853

@<SCITEGIC>MOL_PROPERTY
Conf_Id
SciTegic.value.IntegerValue
6

@<SCITEGIC>MOL_PROPERTY
Delta U+W
SciTegic.value.DoubleValue
2.118

@<SCITEGIC>MOL_PROPERTY
U+W
SciTegic.value.DoubleValue
-51.042

@<SCITEGIC>MOL_PROPERTY
Grad RMS
SciTegic.value.DoubleValue
0.000000

@<SCITEGIC>MOL_PROPERTY
U
SciTegic.value.DoubleValue
10.045

@<SCITEGIC>MOL_PROPERTY
W
SciTegic.value.DoubleValue
-61.086

@<SCITEGIC>MOL_PROPERTY
W(PB)
SciTegic.value.DoubleValue
-63.356

@<SCITEGIC>MOL_PROPERTY
W(SA)
SciTegic.value.DoubleValue
2.270

@<SCITEGIC>MOL_PROPERTY
Valence
SciTegic.value.DoubleValue
10.100

@<SCITEGIC>MOL_PROPERTY
Coulomb
SciTegic.value.DoubleValue
-0.883

@<SCITEGIC>MOL_PROPERTY
VdW
SciTegic.value.DoubleValue
0.828

@<SCITEGIC>MOL_PROPERTY
VdW6
SciTegic.value.DoubleValue
-8.177

@<SCITEGIC>MOL_PROPERTY
VdW12
SciTegic.value.DoubleValue
9.004

@<SCITEGIC>MOL_PROPERTY
Bond
SciTegic.value.DoubleValue
0.182

@<SCITEGIC>MOL_PROPERTY
Angle
SciTegic.value.DoubleValue
2.988

@<SCITEGIC>MOL_PROPERTY
Pdih
SciTegic.value.DoubleValue
6.930

@<SCITEGIC>MOL_PROPERTY
Idih
SciTegic.value.DoubleValue
0.001

@<SCITEGIC>MOL_PROPERTY
Tether
SciTegic.value.DoubleValue
0.000

@<TRIPOS>MOLECULE
guest-s21_confgen4.mol2 : confsearch ligand conformer 854
          22          21           1
SMALL
USER_CHARGES
 
@<TRIPOS>ATOM
       1    C1      21.454803   18.694010   20.613871 C.2        1 MOL1         0.6145
       2    O1      22.438673   19.324187   20.949088 O.co2      1 MOL1        -0.6735
       3    O2      20.716444   19.034539   19.710588 O.co2      1 MOL1        -0.6735
       4    C2      21.168979   17.367925   21.316196 C.3        1 MOL1        -0.1985
       5    H1      22.016650   16.710705   21.090256 H          1 MOL1         0.0740
       6    H2      20.284307   16.906608   20.860801 H          1 MOL1         0.0740
       7    C3      20.995818   17.457471   22.858622 C.3        1 MOL1        -0.1882
       8    H3      21.165663   16.456346   23.277339 H          1 MOL1         0.0742
       9    H4      21.777465   18.100407   23.286682 H          1 MOL1         0.0742
      10    C4      19.599279   17.934396   23.328870 C.3        1 MOL1        -0.1880
      11    H5      19.544598   17.809308   24.418979 H          1 MOL1         0.0742
      12    H6      18.823676   17.282535   22.904197 H          1 MOL1         0.0742
      13    C5      19.286620   19.407671   22.982151 C.3        1 MOL1        -0.1880
      14    H7      20.113279   20.049113   23.317162 H          1 MOL1         0.0742
      15    H8      19.208292   19.526356   21.894106 H          1 MOL1         0.0742
      16    C6      17.969252   19.879705   23.633051 C.3        1 MOL1        -0.1856
      17    H9      18.036032   19.774985   24.724807 H          1 MOL1         0.0742
      18    H10     17.141714   19.237936   23.300292 H          1 MOL1         0.0742
      19    C7      17.654555   21.346871   23.278359 C.3        1 MOL1        -0.2871
      20    H11     18.452555   22.014986   23.627912 H          1 MOL1         0.0754
      21    H12     16.714982   21.665793   23.747950 H          1 MOL1         0.0754
      22    H13     17.551847   21.474676   22.192717 H          1 MOL1         0.0754
@<TRIPOS>BOND
    1     1     2    1
    2     1     3    2
    3     1     4    1
    4     4     5    1
    5     4     6    1
    6     4     7    1
    7     7     8    1
    8     7     9    1
    9     7    10    1
   10    10    11    1
   11    10    12    1
   12    10    13    1
   13    13    14    1
   14    13    15    1
   15    13    16    1
   16    16    17    1
   17    16    18    1
   18    16    19    1
   19    19    20    1
   20    19    21    1
   21    19    22    1
@<TRIPOS>SUBSTRUCTURE
       1 MOL1            1 RESIDUE      1      MOL     
@<SCITEGIC>MOL_PROPERTY
VConf Rank
SciTegic.value.IntegerValue
854

@<SCITEGIC>MOL_PROPERTY
Conf_Id
SciTegic.value.IntegerValue
8

@<SCITEGIC>MOL_PROPERTY
Delta U+W
SciTegic.value.DoubleValue
1.886

@<SCITEGIC>MOL_PROPERTY
U+W
SciTegic.value.DoubleValue
-51.274

@<SCITEGIC>MOL_PROPERTY
Grad RMS
SciTegic.value.DoubleValue
0.000000

@<SCITEGIC>MOL_PROPERTY
U
SciTegic.value.DoubleValue
11.237

@<SCITEGIC>MOL_PROPERTY
W
SciTegic.value.DoubleValue
-62.510

@<SCITEGIC>MOL_PROPERTY
W(PB)
SciTegic.value.DoubleValue
-64.777

@<SCITEGIC>MOL_PROPERTY
W(SA)
SciTegic.value.DoubleValue
2.267

@<SCITEGIC>MOL_PROPERTY
Valence
SciTegic.value.DoubleValue
9.029

@<SCITEGIC>MOL_PROPERTY
Coulomb
SciTegic.value.DoubleValue
1.667

@<SCITEGIC>MOL_PROPERTY
VdW
SciTegic.value.DoubleValue
0.540

@<SCITEGIC>MOL_PROPERTY
VdW6
SciTegic.value.DoubleValue
-8.825

@<SCITEGIC>MOL_PROPERTY
VdW12
SciTegic.value.DoubleValue
9.365

@<SCITEGIC>MOL_PROPERTY
Bond
SciTegic.value.DoubleValue
0.186

@<SCITEGIC>MOL_PROPERTY
Angle
SciTegic.value.DoubleValue
3.195

@<SCITEGIC>MOL_PROPERTY
Pdih
SciTegic.value.DoubleValue
5.642

@<SCITEGIC>MOL_PROPERTY
Idih
SciTegic.value.DoubleValue
0.007

@<SCITEGIC>MOL_PROPERTY
Tether
SciTegic.value.DoubleValue
0.000

@<TRIPOS>MOLECULE
guest-s21_confgen4.mol2 : confsearch ligand conformer 855
          22          21           1
SMALL
USER_CHARGES
 
@<TRIPOS>ATOM
       1    C1      17.942208   16.906242   20.911283 C.2        1 MOL1         0.6145
       2    O1      17.390160   16.605061   21.951138 O.co2      1 MOL1        -0.6735
       3    O2      18.356450   16.091698   20.109891 O.co2      1 MOL1        -0.6735
       4    C2      18.098176   18.387188   20.577165 C.3        1 MOL1        -0.1985
       5    H1      17.442931   18.967198   21.236673 H          1 MOL1         0.0740
       6    H2      17.718604   18.532673   19.559087 H          1 MOL1         0.0740
       7    C3      19.559946   18.906615   20.658227 C.3        1 MOL1        -0.1882
       8    H3      20.168537   18.356258   19.927439 H          1 MOL1         0.0742
       9    H4      19.585920   19.959970   20.348227 H          1 MOL1         0.0742
      10    C4      20.216499   18.769914   22.054286 C.3        1 MOL1        -0.1880
      11    H5      21.266243   19.076874   21.965939 H          1 MOL1         0.0742
      12    H6      20.227018   17.714044   22.357521 H          1 MOL1         0.0742
      13    C5      19.521264   19.617228   23.147974 C.3        1 MOL1        -0.1880
      14    H7      19.491164   20.671009   22.839541 H          1 MOL1         0.0742
      15    H8      18.478465   19.290345   23.251174 H          1 MOL1         0.0742
      16    C6      20.195626   19.502445   24.535079 C.3        1 MOL1        -0.1856
      17    H9      20.240915   18.447476   24.838999 H          1 MOL1         0.0742
      18    H10     19.563554   20.011321   25.275826 H          1 MOL1         0.0742
      19    C7      21.610045   20.120372   24.584043 C.3        1 MOL1        -0.2871
      20    H11     22.312749   19.566792   23.949138 H          1 MOL1         0.0754
      21    H12     22.002290   20.099000   25.609024 H          1 MOL1         0.0754
      22    H13     21.593738   21.166106   24.250466 H          1 MOL1         0.0754
@<TRIPOS>BOND
    1     1     2    1
    2     1     3    2
    3     1     4    1
    4     4     5    1
    5     4     6    1
    6     4     7    1
    7     7     8    1
    8     7     9    1
    9     7    10    1
   10    10    11    1
   11    10    12    1
   12    10    13    1
   13    13    14    1
   14    13    15    1
   15    13    16    1
   16    16    17    1
   17    16    18    1
   18    16    19    1
   19    19    20    1
   20    19    21    1
   21    19    22    1
@<TRIPOS>SUBSTRUCTURE
       1 MOL1            1 RESIDUE      1      MOL     
@<SCITEGIC>MOL_PROPERTY
VConf Rank
SciTegic.value.IntegerValue
855

@<SCITEGIC>MOL_PROPERTY
Conf_Id
SciTegic.value.IntegerValue
93

@<SCITEGIC>MOL_PROPERTY
Delta U+W
SciTegic.value.DoubleValue
1.836

@<SCITEGIC>MOL_PROPERTY
U+W
SciTegic.value.DoubleValue
-51.323

@<SCITEGIC>MOL_PROPERTY
Grad RMS
SciTegic.value.DoubleValue
0.000000

@<SCITEGIC>MOL_PROPERTY
U
SciTegic.value.DoubleValue
10.427

@<SCITEGIC>MOL_PROPERTY
W
SciTegic.value.DoubleValue
-61.751

@<SCITEGIC>MOL_PROPERTY
W(PB)
SciTegic.value.DoubleValue
-63.980

@<SCITEGIC>MOL_PROPERTY
W(SA)
SciTegic.value.DoubleValue
2.230

@<SCITEGIC>MOL_PROPERTY
Valence
SciTegic.value.DoubleValue
8.446

@<SCITEGIC>MOL_PROPERTY
Coulomb
SciTegic.value.DoubleValue
1.306

@<SCITEGIC>MOL_PROPERTY
VdW
SciTegic.value.DoubleValue
0.676

@<SCITEGIC>MOL_PROPERTY
VdW6
SciTegic.value.DoubleValue
-8.928

@<SCITEGIC>MOL_PROPERTY
VdW12
SciTegic.value.DoubleValue
9.604

@<SCITEGIC>MOL_PROPERTY
Bond
SciTegic.value.DoubleValue
0.209

@<SCITEGIC>MOL_PROPERTY
Angle
SciTegic.value.DoubleValue
3.066

@<SCITEGIC>MOL_PROPERTY
Pdih
SciTegic.value.DoubleValue
5.170

@<SCITEGIC>MOL_PROPERTY
Idih
SciTegic.value.DoubleValue
0.001

@<SCITEGIC>MOL_PROPERTY
Tether
SciTegic.value.DoubleValue
0.000

@<TRIPOS>MOLECULE
guest-s21_confgen4.mol2 : confsearch ligand conformer 856
          22          21           1
SMALL
USER_CHARGES
 
@<TRIPOS>ATOM
       1    C1      18.144688   16.925873   23.958654 C.2        1 MOL1         0.6145
       2    O1      17.125997   17.103048   24.597547 O.co2      1 MOL1        -0.6735
       3    O2      19.184999   16.532379   24.448226 O.co2      1 MOL1        -0.6735
       4    C2      18.104297   17.183541   22.454946 C.3        1 MOL1        -0.1985
       5    H1      17.232105   16.651804   22.057125 H          1 MOL1         0.0740
       6    H2      18.984415   16.720160   21.995186 H          1 MOL1         0.0740
       7    C3      18.008547   18.685392   22.069685 C.3        1 MOL1        -0.1882
       8    H3      17.927079   18.772979   20.977887 H          1 MOL1         0.0742
       9    H4      17.075224   19.093999   22.481115 H          1 MOL1         0.0742
      10    C4      19.191316   19.554653   22.563824 C.3        1 MOL1        -0.1880
      11    H5      19.258606   19.501469   23.659072 H          1 MOL1         0.0742
      12    H6      18.968328   20.600525   22.318012 H          1 MOL1         0.0742
      13    C5      20.551486   19.156543   21.940213 C.3        1 MOL1        -0.1880
      14    H7      20.783204   18.117873   22.209298 H          1 MOL1         0.0742
      15    H8      20.482550   19.189365   20.844465 H          1 MOL1         0.0742
      16    C6      21.726816   20.044124   22.412223 C.3        1 MOL1        -0.1856
      17    H9      22.665558   19.609512   22.042018 H          1 MOL1         0.0742
      18    H10     21.788161   20.025358   23.509157 H          1 MOL1         0.0742
      19    C7      21.630288   21.504765   21.920271 C.3        1 MOL1        -0.2871
      20    H11     20.769961   22.021913   22.362702 H          1 MOL1         0.0754
      21    H12     21.533014   21.545734   20.827587 H          1 MOL1         0.0754
      22    H13     22.532540   22.063801   22.200125 H          1 MOL1         0.0754
@<TRIPOS>BOND
    1     1     2    1
    2     1     3    2
    3     1     4    1
    4     4     5    1
    5     4     6    1
    6     4     7    1
    7     7     8    1
    8     7     9    1
    9     7    10    1
   10    10    11    1
   11    10    12    1
   12    10    13    1
   13    13    14    1
   14    13    15    1
   15    13    16    1
   16    16    17    1
   17    16    18    1
   18    16    19    1
   19    19    20    1
   20    19    21    1
   21    19    22    1
@<TRIPOS>SUBSTRUCTURE
       1 MOL1            1 RESIDUE      1      MOL     
@<SCITEGIC>MOL_PROPERTY
VConf Rank
SciTegic.value.IntegerValue
856

@<SCITEGIC>MOL_PROPERTY
Conf_Id
SciTegic.value.IntegerValue
70

@<SCITEGIC>MOL_PROPERTY
Delta U+W
SciTegic.value.DoubleValue
1.803

@<SCITEGIC>MOL_PROPERTY
U+W
SciTegic.value.DoubleValue
-51.356

@<SCITEGIC>MOL_PROPERTY
Grad RMS
SciTegic.value.DoubleValue
0.000000

@<SCITEGIC>MOL_PROPERTY
U
SciTegic.value.DoubleValue
10.428

@<SCITEGIC>MOL_PROPERTY
W
SciTegic.value.DoubleValue
-61.784

@<SCITEGIC>MOL_PROPERTY
W(PB)
SciTegic.value.DoubleValue
-64.014

@<SCITEGIC>MOL_PROPERTY
W(SA)
SciTegic.value.DoubleValue
2.230

@<SCITEGIC>MOL_PROPERTY
Valence
SciTegic.value.DoubleValue
8.445

@<SCITEGIC>MOL_PROPERTY
Coulomb
SciTegic.value.DoubleValue
1.306

@<SCITEGIC>MOL_PROPERTY
VdW
SciTegic.value.DoubleValue
0.676

@<SCITEGIC>MOL_PROPERTY
VdW6
SciTegic.value.DoubleValue
-8.929

@<SCITEGIC>MOL_PROPERTY
VdW12
SciTegic.value.DoubleValue
9.605

@<SCITEGIC>MOL_PROPERTY
Bond
SciTegic.value.DoubleValue
0.209

@<SCITEGIC>MOL_PROPERTY
Angle
SciTegic.value.DoubleValue
3.066

@<SCITEGIC>MOL_PROPERTY
Pdih
SciTegic.value.DoubleValue
5.170

@<SCITEGIC>MOL_PROPERTY
Idih
SciTegic.value.DoubleValue
0.001

@<SCITEGIC>MOL_PROPERTY
Tether
SciTegic.value.DoubleValue
0.000

@<TRIPOS>MOLECULE
guest-s21_confgen4.mol2 : confsearch ligand conformer 857
          22          21           1
SMALL
USER_CHARGES
 
@<TRIPOS>ATOM
       1    C1      20.541616   15.947046   23.335994 C.2        1 MOL1         0.6145
       2    O1      21.654742   16.086325   23.803395 O.co2      1 MOL1        -0.6735
       3    O2      20.284588   15.181115   22.428159 O.co2      1 MOL1        -0.6735
       4    C2      19.401760   16.764279   23.937621 C.3        1 MOL1        -0.1985
       5    H1      19.496704   16.707031   25.028376 H          1 MOL1         0.0740
       6    H2      18.450900   16.284255   23.676312 H          1 MOL1         0.0740
       7    C3      19.391488   18.250814   23.495928 C.3        1 MOL1        -0.1882
       8    H3      18.626953   18.788962   24.072251 H          1 MOL1         0.0742
       9    H4      20.358839   18.703842   23.750147 H          1 MOL1         0.0742
      10    C4      19.103289   18.417191   21.984695 C.3        1 MOL1        -0.1880
      11    H5      18.176350   17.882070   21.737167 H          1 MOL1         0.0742
      12    H6      19.901059   17.941140   21.397974 H          1 MOL1         0.0742
      13    C5      18.951012   19.892769   21.545365 C.3        1 MOL1        -0.1880
      14    H7      18.628573   19.911582   20.495332 H          1 MOL1         0.0742
      15    H8      18.148526   20.368878   22.125193 H          1 MOL1         0.0742
      16    C6      20.252654   20.713990   21.684981 C.3        1 MOL1        -0.1856
      17    H9      21.068220   20.209583   21.148610 H          1 MOL1         0.0742
      18    H10     20.551327   20.773276   22.739798 H          1 MOL1         0.0742
      19    C7      20.081916   22.142893   21.131070 C.3        1 MOL1        -0.2871
      20    H11     19.819991   22.122794   20.065076 H          1 MOL1         0.0754
      21    H12     21.013150   22.713806   21.240259 H          1 MOL1         0.0754
      22    H13     19.289794   22.680156   21.668902 H          1 MOL1         0.0754
@<TRIPOS>BOND
    1     1     2    1
    2     1     3    2
    3     1     4    1
    4     4     5    1
    5     4     6    1
    6     4     7    1
    7     7     8    1
    8     7     9    1
    9     7    10    1
   10    10    11    1
   11    10    12    1
   12    10    13    1
   13    13    14    1
   14    13    15    1
   15    13    16    1
   16    16    17    1
   17    16    18    1
   18    16    19    1
   19    19    20    1
   20    19    21    1
   21    19    22    1
@<TRIPOS>SUBSTRUCTURE
       1 MOL1            1 RESIDUE      1      MOL     
@<SCITEGIC>MOL_PROPERTY
VConf Rank
SciTegic.value.IntegerValue
857

@<SCITEGIC>MOL_PROPERTY
Conf_Id
SciTegic.value.IntegerValue
85

@<SCITEGIC>MOL_PROPERTY
Delta U+W
SciTegic.value.DoubleValue
0.707

@<SCITEGIC>MOL_PROPERTY
U+W
SciTegic.value.DoubleValue
-52.452

@<SCITEGIC>MOL_PROPERTY
Grad RMS
SciTegic.value.DoubleValue
0.000000

@<SCITEGIC>MOL_PROPERTY
U
SciTegic.value.DoubleValue
8.925

@<SCITEGIC>MOL_PROPERTY
W
SciTegic.value.DoubleValue
-61.378

@<SCITEGIC>MOL_PROPERTY
W(PB)
SciTegic.value.DoubleValue
-63.661

@<SCITEGIC>MOL_PROPERTY
W(SA)
SciTegic.value.DoubleValue
2.283

@<SCITEGIC>MOL_PROPERTY
Valence
SciTegic.value.DoubleValue
7.881

@<SCITEGIC>MOL_PROPERTY
Coulomb
SciTegic.value.DoubleValue
0.349

@<SCITEGIC>MOL_PROPERTY
VdW
SciTegic.value.DoubleValue
0.695

@<SCITEGIC>MOL_PROPERTY
VdW6
SciTegic.value.DoubleValue
-8.049

@<SCITEGIC>MOL_PROPERTY
VdW12
SciTegic.value.DoubleValue
8.743

@<SCITEGIC>MOL_PROPERTY
Bond
SciTegic.value.DoubleValue
0.156

@<SCITEGIC>MOL_PROPERTY
Angle
SciTegic.value.DoubleValue
2.660

@<SCITEGIC>MOL_PROPERTY
Pdih
SciTegic.value.DoubleValue
5.064

@<SCITEGIC>MOL_PROPERTY
Idih
SciTegic.value.DoubleValue
0.001

@<SCITEGIC>MOL_PROPERTY
Tether
SciTegic.value.DoubleValue
0.000

@<TRIPOS>MOLECULE
guest-s21_confgen4.mol2 : confsearch ligand conformer 858
          22          21           1
SMALL
USER_CHARGES
 
@<TRIPOS>ATOM
       1    C1      18.532784   21.548039   20.887343 C.2        1 MOL1         0.6145
       2    O1      17.809180   22.183131   21.628960 O.co2      1 MOL1        -0.6735
       3    O2      19.384243   22.054303   20.183292 O.co2      1 MOL1        -0.6735
       4    C2      18.348193   20.034615   20.817571 C.3        1 MOL1        -0.1985
       5    H1      18.339734   19.755145   19.757469 H          1 MOL1         0.0740
       6    H2      17.359605   19.782674   21.220158 H          1 MOL1         0.0740
       7    C3      19.448325   19.228106   21.555771 C.3        1 MOL1        -0.1882
       8    H3      19.316814   18.165405   21.316441 H          1 MOL1         0.0742
       9    H4      20.435632   19.524642   21.175550 H          1 MOL1         0.0742
      10    C4      19.396495   19.416849   23.089646 C.3        1 MOL1        -0.1880
      11    H5      18.438642   19.038282   23.471622 H          1 MOL1         0.0742
      12    H6      19.416196   20.490396   23.321920 H          1 MOL1         0.0742
      13    C5      20.560644   18.737780   23.853940 C.3        1 MOL1        -0.1880
      14    H7      21.519703   19.175992   23.545553 H          1 MOL1         0.0742
      15    H8      20.447047   18.988074   24.917573 H          1 MOL1         0.0742
      16    C6      20.609292   17.194760   23.724995 C.3        1 MOL1        -0.1856
      17    H9      19.601829   16.795284   23.544310 H          1 MOL1         0.0742
      18    H10     20.937349   16.772441   24.684851 H          1 MOL1         0.0742
      19    C7      21.584215   16.705586   22.630800 C.3        1 MOL1        -0.2871
      20    H11     21.306075   17.079479   21.638961 H          1 MOL1         0.0754
      21    H12     21.591559   15.608896   22.585669 H          1 MOL1         0.0754
      22    H13     22.608165   17.039468   22.843250 H          1 MOL1         0.0754
@<TRIPOS>BOND
    1     1     2    1
    2     1     3    2
    3     1     4    1
    4     4     5    1
    5     4     6    1
    6     4     7    1
    7     7     8    1
    8     7     9    1
    9     7    10    1
   10    10    11    1
   11    10    12    1
   12    10    13    1
   13    13    14    1
   14    13    15    1
   15    13    16    1
   16    16    17    1
   17    16    18    1
   18    16    19    1
   19    19    20    1
   20    19    21    1
   21    19    22    1
@<TRIPOS>SUBSTRUCTURE
       1 MOL1            1 RESIDUE      1      MOL     
@<SCITEGIC>MOL_PROPERTY
VConf Rank
SciTegic.value.IntegerValue
858

@<SCITEGIC>MOL_PROPERTY
Conf_Id
SciTegic.value.IntegerValue
82

@<SCITEGIC>MOL_PROPERTY
Delta U+W
SciTegic.value.DoubleValue
3.438

@<SCITEGIC>MOL_PROPERTY
U+W
SciTegic.value.DoubleValue
-49.721

@<SCITEGIC>MOL_PROPERTY
Grad RMS
SciTegic.value.DoubleValue
0.000000

@<SCITEGIC>MOL_PROPERTY
U
SciTegic.value.DoubleValue
11.773

@<SCITEGIC>MOL_PROPERTY
W
SciTegic.value.DoubleValue
-61.495

@<SCITEGIC>MOL_PROPERTY
W(PB)
SciTegic.value.DoubleValue
-63.749

@<SCITEGIC>MOL_PROPERTY
W(SA)
SciTegic.value.DoubleValue
2.254

@<SCITEGIC>MOL_PROPERTY
Valence
SciTegic.value.DoubleValue
10.419

@<SCITEGIC>MOL_PROPERTY
Coulomb
SciTegic.value.DoubleValue
0.565

@<SCITEGIC>MOL_PROPERTY
VdW
SciTegic.value.DoubleValue
0.789

@<SCITEGIC>MOL_PROPERTY
VdW6
SciTegic.value.DoubleValue
-8.847

@<SCITEGIC>MOL_PROPERTY
VdW12
SciTegic.value.DoubleValue
9.636

@<SCITEGIC>MOL_PROPERTY
Bond
SciTegic.value.DoubleValue
0.200

@<SCITEGIC>MOL_PROPERTY
Angle
SciTegic.value.DoubleValue
3.187

@<SCITEGIC>MOL_PROPERTY
Pdih
SciTegic.value.DoubleValue
7.032

@<SCITEGIC>MOL_PROPERTY
Idih
SciTegic.value.DoubleValue
0.001

@<SCITEGIC>MOL_PROPERTY
Tether
SciTegic.value.DoubleValue
0.000

@<TRIPOS>MOLECULE
guest-s21_confgen4.mol2 : confsearch ligand conformer 859
          22          21           1
SMALL
USER_CHARGES
 
@<TRIPOS>ATOM
       1    C1      20.777602   22.022396   23.202763 C.2        1 MOL1         0.6145
       2    O1      20.126385   22.787585   22.519115 O.co2      1 MOL1        -0.6735
       3    O2      20.937661   22.160490   24.399530 O.co2      1 MOL1        -0.6735
       4    C2      21.449300   20.837018   22.514942 C.3        1 MOL1        -0.1985
       5    H1      22.248545   20.460818   23.164971 H          1 MOL1         0.0740
       6    H2      21.931478   21.216833   21.606516 H          1 MOL1         0.0740
       7    C3      20.477004   19.687602   22.141880 C.3        1 MOL1        -0.1882
       8    H3      19.656472   20.087496   21.530252 H          1 MOL1         0.0742
       9    H4      21.019483   18.964455   21.520043 H          1 MOL1         0.0742
      10    C4      19.904449   18.965793   23.383755 C.3        1 MOL1        -0.1880
      11    H5      19.458870   19.708687   24.059335 H          1 MOL1         0.0742
      12    H6      20.724857   18.496067   23.943207 H          1 MOL1         0.0742
      13    C5      18.825839   17.901638   23.060181 C.3        1 MOL1        -0.1880
      14    H7      18.458513   17.503431   24.015884 H          1 MOL1         0.0742
      15    H8      17.958512   18.377846   22.582794 H          1 MOL1         0.0742
      16    C6      19.324468   16.711723   22.202644 C.3        1 MOL1        -0.1856
      17    H9      18.823948   15.796395   22.547540 H          1 MOL1         0.0742
      18    H10     20.399451   16.550446   22.362680 H          1 MOL1         0.0742
      19    C7      19.025944   16.879597   20.696083 C.3        1 MOL1        -0.2871
      20    H11     17.946004   16.968029   20.520022 H          1 MOL1         0.0754
      21    H12     19.387281   16.008884   20.133844 H          1 MOL1         0.0754
      22    H13     19.509904   17.770654   20.280505 H          1 MOL1         0.0754
@<TRIPOS>BOND
    1     1     2    1
    2     1     3    2
    3     1     4    1
    4     4     5    1
    5     4     6    1
    6     4     7    1
    7     7     8    1
    8     7     9    1
    9     7    10    1
   10    10    11    1
   11    10    12    1
   12    10    13    1
   13    13    14    1
   14    13    15    1
   15    13    16    1
   16    16    17    1
   17    16    18    1
   18    16    19    1
   19    19    20    1
   20    19    21    1
   21    19    22    1
@<TRIPOS>SUBSTRUCTURE
       1 MOL1            1 RESIDUE      1      MOL     
@<SCITEGIC>MOL_PROPERTY
VConf Rank
SciTegic.value.IntegerValue
859

@<SCITEGIC>MOL_PROPERTY
Conf_Id
SciTegic.value.IntegerValue
94

@<SCITEGIC>MOL_PROPERTY
Delta U+W
SciTegic.value.DoubleValue
3.471

@<SCITEGIC>MOL_PROPERTY
U+W
SciTegic.value.DoubleValue
-49.688

@<SCITEGIC>MOL_PROPERTY
Grad RMS
SciTegic.value.DoubleValue
0.000000

@<SCITEGIC>MOL_PROPERTY
U
SciTegic.value.DoubleValue
11.773

@<SCITEGIC>MOL_PROPERTY
W
SciTegic.value.DoubleValue
-61.461

@<SCITEGIC>MOL_PROPERTY
W(PB)
SciTegic.value.DoubleValue
-63.710

@<SCITEGIC>MOL_PROPERTY
W(SA)
SciTegic.value.DoubleValue
2.248

@<SCITEGIC>MOL_PROPERTY
Valence
SciTegic.value.DoubleValue
10.419

@<SCITEGIC>MOL_PROPERTY
Coulomb
SciTegic.value.DoubleValue
0.566

@<SCITEGIC>MOL_PROPERTY
VdW
SciTegic.value.DoubleValue
0.789

@<SCITEGIC>MOL_PROPERTY
VdW6
SciTegic.value.DoubleValue
-8.847

@<SCITEGIC>MOL_PROPERTY
VdW12
SciTegic.value.DoubleValue
9.636

@<SCITEGIC>MOL_PROPERTY
Bond
SciTegic.value.DoubleValue
0.200

@<SCITEGIC>MOL_PROPERTY
Angle
SciTegic.value.DoubleValue
3.187

@<SCITEGIC>MOL_PROPERTY
Pdih
SciTegic.value.DoubleValue
7.032

@<SCITEGIC>MOL_PROPERTY
Idih
SciTegic.value.DoubleValue
0.001

@<SCITEGIC>MOL_PROPERTY
Tether
SciTegic.value.DoubleValue
0.000

@<TRIPOS>MOLECULE
guest-s21_confgen4.mol2 : confsearch ligand conformer 860
          22          21           1
SMALL
USER_CHARGES
 
@<TRIPOS>ATOM
       1    C1      22.362498   17.019247   22.925394 C.2        1 MOL1         0.6145
       2    O1      23.496371   16.986741   22.489534 O.co2      1 MOL1        -0.6735
       3    O2      21.752069   16.032420   23.286121 O.co2      1 MOL1        -0.6735
       4    C2      21.660796   18.370201   23.005832 C.3        1 MOL1        -0.1985
       5    H1      22.418108   19.136308   23.210260 H          1 MOL1         0.0740
       6    H2      20.983349   18.343641   23.866875 H          1 MOL1         0.0740
       7    C3      20.881910   18.719942   21.711432 C.3        1 MOL1        -0.1882
       8    H3      21.570361   18.657642   20.857470 H          1 MOL1         0.0742
       9    H4      20.107142   17.962575   21.532670 H          1 MOL1         0.0742
      10    C4      20.249262   20.134042   21.733671 C.3        1 MOL1        -0.1880
      11    H5      19.764914   20.321592   20.766352 H          1 MOL1         0.0742
      12    H6      21.051614   20.879957   21.813595 H          1 MOL1         0.0742
      13    C5      19.227436   20.382507   22.874418 C.3        1 MOL1        -0.1880
      14    H7      19.747793   20.356221   23.840745 H          1 MOL1         0.0742
      15    H8      18.835619   21.404011   22.776680 H          1 MOL1         0.0742
      16    C6      18.036249   19.394065   22.918990 C.3        1 MOL1        -0.1856
      17    H9      17.399898   19.650891   23.776898 H          1 MOL1         0.0742
      18    H10     18.398101   18.373820   23.103829 H          1 MOL1         0.0742
      19    C7      17.175727   19.417885   21.637297 C.3        1 MOL1        -0.2871
      20    H11     16.816480   20.433029   21.424273 H          1 MOL1         0.0754
      21    H12     16.300385   18.765323   21.749921 H          1 MOL1         0.0754
      22    H13     17.745080   19.064304   20.768520 H          1 MOL1         0.0754
@<TRIPOS>BOND
    1     1     2    1
    2     1     3    2
    3     1     4    1
    4     4     5    1
    5     4     6    1
    6     4     7    1
    7     7     8    1
    8     7     9    1
    9     7    10    1
   10    10    11    1
   11    10    12    1
   12    10    13    1
   13    13    14    1
   14    13    15    1
   15    13    16    1
   16    16    17    1
   17    16    18    1
   18    16    19    1
   19    19    20    1
   20    19    21    1
   21    19    22    1
@<TRIPOS>SUBSTRUCTURE
       1 MOL1            1 RESIDUE      1      MOL     
@<SCITEGIC>MOL_PROPERTY
VConf Rank
SciTegic.value.IntegerValue
860

@<SCITEGIC>MOL_PROPERTY
Conf_Id
SciTegic.value.IntegerValue
56

@<SCITEGIC>MOL_PROPERTY
Delta U+W
SciTegic.value.DoubleValue
0.853

@<SCITEGIC>MOL_PROPERTY
U+W
SciTegic.value.DoubleValue
-52.307

@<SCITEGIC>MOL_PROPERTY
Grad RMS
SciTegic.value.DoubleValue
0.000000

@<SCITEGIC>MOL_PROPERTY
U
SciTegic.value.DoubleValue
8.874

@<SCITEGIC>MOL_PROPERTY
W
SciTegic.value.DoubleValue
-61.181

@<SCITEGIC>MOL_PROPERTY
W(PB)
SciTegic.value.DoubleValue
-63.413

@<SCITEGIC>MOL_PROPERTY
W(SA)
SciTegic.value.DoubleValue
2.232

@<SCITEGIC>MOL_PROPERTY
Valence
SciTegic.value.DoubleValue
8.479

@<SCITEGIC>MOL_PROPERTY
Coulomb
SciTegic.value.DoubleValue
-0.357

@<SCITEGIC>MOL_PROPERTY
VdW
SciTegic.value.DoubleValue
0.753

@<SCITEGIC>MOL_PROPERTY
VdW6
SciTegic.value.DoubleValue
-9.081

@<SCITEGIC>MOL_PROPERTY
VdW12
SciTegic.value.DoubleValue
9.833

@<SCITEGIC>MOL_PROPERTY
Bond
SciTegic.value.DoubleValue
0.221

@<SCITEGIC>MOL_PROPERTY
Angle
SciTegic.value.DoubleValue
3.208

@<SCITEGIC>MOL_PROPERTY
Pdih
SciTegic.value.DoubleValue
5.050

@<SCITEGIC>MOL_PROPERTY
Idih
SciTegic.value.DoubleValue
0.000

@<SCITEGIC>MOL_PROPERTY
Tether
SciTegic.value.DoubleValue
0.000

@<TRIPOS>MOLECULE
guest-s21_confgen4.mol2 : confsearch ligand conformer 861
          22          21           1
SMALL
USER_CHARGES
 
@<TRIPOS>ATOM
       1    C1      18.804936   15.626606   20.070596 C.2        1 MOL1         0.6145
       2    O1      17.613775   15.843729   20.181926 O.co2      1 MOL1        -0.6735
       3    O2      19.251322   14.663236   19.480191 O.co2      1 MOL1        -0.6735
       4    C2      19.814021   16.593333   20.692457 C.3        1 MOL1        -0.1985
       5    H1      20.468898   16.945385   19.886750 H          1 MOL1         0.0740
       6    H2      20.438106   16.014679   21.383576 H          1 MOL1         0.0740
       7    C3      19.196783   17.808187   21.435125 C.3        1 MOL1        -0.1882
       8    H3      18.567866   18.379997   20.738716 H          1 MOL1         0.0742
       9    H4      18.537193   17.448464   22.237016 H          1 MOL1         0.0742
      10    C4      20.283325   18.729903   22.030424 C.3        1 MOL1        -0.1880
      11    H5      20.941450   19.088238   21.226933 H          1 MOL1         0.0742
      12    H6      20.910842   18.156042   22.726151 H          1 MOL1         0.0742
      13    C5      19.667202   19.937598   22.768781 C.3        1 MOL1        -0.1880
      14    H7      19.039525   20.511759   22.073448 H          1 MOL1         0.0742
      15    H8      19.008996   19.579742   23.572418 H          1 MOL1         0.0742
      16    C6      20.752435   20.859142   23.363870 C.3        1 MOL1        -0.1856
      17    H9      21.411637   21.220771   22.562527 H          1 MOL1         0.0742
      18    H10     21.381171   20.288671   24.061530 H          1 MOL1         0.0742
      19    C7      20.133088   22.063840   24.100381 C.3        1 MOL1        -0.2871
      20    H11     19.523572   22.670484   23.417827 H          1 MOL1         0.0754
      21    H12     20.918325   22.708061   24.516883 H          1 MOL1         0.0754
      22    H13     19.492941   21.731407   24.928094 H          1 MOL1         0.0754
@<TRIPOS>BOND
    1     1     2    1
    2     1     3    2
    3     1     4    1
    4     4     5    1
    5     4     6    1
    6     4     7    1
    7     7     8    1
    8     7     9    1
    9     7    10    1
   10    10    11    1
   11    10    12    1
   12    10    13    1
   13    13    14    1
   14    13    15    1
   15    13    16    1
   16    16    17    1
   17    16    18    1
   18    16    19    1
   19    19    20    1
   20    19    21    1
   21    19    22    1
@<TRIPOS>SUBSTRUCTURE
       1 MOL1            1 RESIDUE      1      MOL     
@<SCITEGIC>MOL_PROPERTY
VConf Rank
SciTegic.value.IntegerValue
861

@<SCITEGIC>MOL_PROPERTY
Conf_Id
SciTegic.value.IntegerValue
0

@<SCITEGIC>MOL_PROPERTY
Delta U+W
SciTegic.value.DoubleValue
0.000

@<SCITEGIC>MOL_PROPERTY
U+W
SciTegic.value.DoubleValue
-53.159

@<SCITEGIC>MOL_PROPERTY
Grad RMS
SciTegic.value.DoubleValue
0.000000

@<SCITEGIC>MOL_PROPERTY
U
SciTegic.value.DoubleValue
6.763

@<SCITEGIC>MOL_PROPERTY
W
SciTegic.value.DoubleValue
-59.922

@<SCITEGIC>MOL_PROPERTY
W(PB)
SciTegic.value.DoubleValue
-62.256

@<SCITEGIC>MOL_PROPERTY
W(SA)
SciTegic.value.DoubleValue
2.334

@<SCITEGIC>MOL_PROPERTY
Valence
SciTegic.value.DoubleValue
7.600

@<SCITEGIC>MOL_PROPERTY
Coulomb
SciTegic.value.DoubleValue
-2.139

@<SCITEGIC>MOL_PROPERTY
VdW
SciTegic.value.DoubleValue
1.302

@<SCITEGIC>MOL_PROPERTY
VdW6
SciTegic.value.DoubleValue
-6.786

@<SCITEGIC>MOL_PROPERTY
VdW12
SciTegic.value.DoubleValue
8.088

@<SCITEGIC>MOL_PROPERTY
Bond
SciTegic.value.DoubleValue
0.134

@<SCITEGIC>MOL_PROPERTY
Angle
SciTegic.value.DoubleValue
2.720

@<SCITEGIC>MOL_PROPERTY
Pdih
SciTegic.value.DoubleValue
4.746

@<SCITEGIC>MOL_PROPERTY
Idih
SciTegic.value.DoubleValue
0.000

@<SCITEGIC>MOL_PROPERTY
Tether
SciTegic.value.DoubleValue
0.000

@<TRIPOS>MOLECULE
guest-s21_confgen4.mol2 : confsearch ligand conformer 862
          22          21           1
SMALL
USER_CHARGES
 
@<TRIPOS>ATOM
       1    C1      23.155666   17.106091   20.982136 C.2        1 MOL1         0.6145
       2    O1      24.171419   17.754857   21.136348 O.co2      1 MOL1        -0.6735
       3    O2      22.993041   16.316127   20.073323 O.co2      1 MOL1        -0.6735
       4    C2      22.013438   17.311123   21.970817 C.3        1 MOL1        -0.1985
       5    H1      22.448223   17.546006   22.949824 H          1 MOL1         0.0740
       6    H2      21.477228   16.360068   22.073951 H          1 MOL1         0.0740
       7    C3      21.036196   18.431433   21.537282 C.3        1 MOL1        -0.1882
       8    H3      21.590704   19.373598   21.425843 H          1 MOL1         0.0742
       9    H4      20.619738   18.187697   20.549998 H          1 MOL1         0.0742
      10    C4      19.889578   18.619295   22.554068 C.3        1 MOL1        -0.1880
      11    H5      20.309329   18.861602   23.540106 H          1 MOL1         0.0742
      12    H6      19.338134   17.675377   22.664069 H          1 MOL1         0.0742
      13    C5      18.917055   19.736630   22.119264 C.3        1 MOL1        -0.1880
      14    H7      19.468127   20.680726   22.009141 H          1 MOL1         0.0742
      15    H8      18.497091   19.494701   21.133248 H          1 MOL1         0.0742
      16    C6      17.770797   19.924996   23.134980 C.3        1 MOL1        -0.1856
      17    H9      18.186936   20.169138   24.122249 H          1 MOL1         0.0742
      18    H10     17.215900   18.983105   23.246372 H          1 MOL1         0.0742
      19    C7      16.801852   21.041608   22.697187 C.3        1 MOL1        -0.2871
      20    H11     16.346353   20.807928   21.725939 H          1 MOL1         0.0754
      21    H12     17.324773   22.002885   22.608263 H          1 MOL1         0.0754
      22    H13     15.993699   21.161989   23.430324 H          1 MOL1         0.0754
@<TRIPOS>BOND
    1     1     2    1
    2     1     3    2
    3     1     4    1
    4     4     5    1
    5     4     6    1
    6     4     7    1
    7     7     8    1
    8     7     9    1
    9     7    10    1
   10    10    11    1
   11    10    12    1
   12    10    13    1
   13    13    14    1
   14    13    15    1
   15    13    16    1
   16    16    17    1
   17    16    18    1
   18    16    19    1
   19    19    20    1
   20    19    21    1
   21    19    22    1
@<TRIPOS>SUBSTRUCTURE
       1 MOL1            1 RESIDUE      1      MOL     
@<SCITEGIC>MOL_PROPERTY
VConf Rank
SciTegic.value.IntegerValue
862

@<SCITEGIC>MOL_PROPERTY
Conf_Id
SciTegic.value.IntegerValue
10

@<SCITEGIC>MOL_PROPERTY
Delta U+W
SciTegic.value.DoubleValue
-1.291

@<SCITEGIC>MOL_PROPERTY
U+W
SciTegic.value.DoubleValue
-54.451

@<SCITEGIC>MOL_PROPERTY
Grad RMS
SciTegic.value.DoubleValue
0.000000

@<SCITEGIC>MOL_PROPERTY
U
SciTegic.value.DoubleValue
5.779

@<SCITEGIC>MOL_PROPERTY
W
SciTegic.value.DoubleValue
-60.230

@<SCITEGIC>MOL_PROPERTY
W(PB)
SciTegic.value.DoubleValue
-62.557

@<SCITEGIC>MOL_PROPERTY
W(SA)
SciTegic.value.DoubleValue
2.328

@<SCITEGIC>MOL_PROPERTY
Valence
SciTegic.value.DoubleValue
7.101

@<SCITEGIC>MOL_PROPERTY
Coulomb
SciTegic.value.DoubleValue
-2.079

@<SCITEGIC>MOL_PROPERTY
VdW
SciTegic.value.DoubleValue
0.757

@<SCITEGIC>MOL_PROPERTY
VdW6
SciTegic.value.DoubleValue
-6.496

@<SCITEGIC>MOL_PROPERTY
VdW12
SciTegic.value.DoubleValue
7.253

@<SCITEGIC>MOL_PROPERTY
Bond
SciTegic.value.DoubleValue
0.100

@<SCITEGIC>MOL_PROPERTY
Angle
SciTegic.value.DoubleValue
2.262

@<SCITEGIC>MOL_PROPERTY
Pdih
SciTegic.value.DoubleValue
4.738

@<SCITEGIC>MOL_PROPERTY
Idih
SciTegic.value.DoubleValue
0.001

@<SCITEGIC>MOL_PROPERTY
Tether
SciTegic.value.DoubleValue
0.000

@<TRIPOS>MOLECULE
guest-s21_confgen4.mol2 : confsearch ligand conformer 863
          22          21           1
SMALL
USER_CHARGES
 
@<TRIPOS>ATOM
       1    C1      17.865879   21.865943   23.795460 C.2        1 MOL1         0.6145
       2    O1      18.303824   22.206725   24.876443 O.co2      1 MOL1        -0.6735
       3    O2      17.254904   22.608304   23.052449 O.co2      1 MOL1        -0.6735
       4    C2      18.114994   20.433533   23.336820 C.3        1 MOL1        -0.1985
       5    H1      17.263231   20.119715   22.721465 H          1 MOL1         0.0740
       6    H2      18.128786   19.789184   24.224109 H          1 MOL1         0.0740
       7    C3      19.434846   20.277006   22.542061 C.3        1 MOL1        -0.1882
       8    H3      19.410395   20.938339   21.664820 H          1 MOL1         0.0742
       9    H4      20.276271   20.606916   23.167132 H          1 MOL1         0.0742
      10    C4      19.663818   18.818585   22.089374 C.3        1 MOL1        -0.1880
      11    H5      18.822312   18.492251   21.463092 H          1 MOL1         0.0742
      12    H6      19.679364   18.166148   22.972126 H          1 MOL1         0.0742
      13    C5      20.984306   18.666943   21.299706 C.3        1 MOL1        -0.1880
      14    H7      20.982699   19.376515   20.460994 H          1 MOL1         0.0742
      15    H8      21.832711   18.944261   21.940205 H          1 MOL1         0.0742
      16    C6      21.204516   17.243251   20.737643 C.3        1 MOL1        -0.1856
      17    H9      22.096762   17.251610   20.096501 H          1 MOL1         0.0742
      18    H10     20.360719   16.964780   20.091292 H          1 MOL1         0.0742
      19    C7      21.392138   16.174529   21.836206 C.3        1 MOL1        -0.2871
      20    H11     21.632854   15.201804   21.388121 H          1 MOL1         0.0754
      21    H12     20.479961   16.048438   22.432642 H          1 MOL1         0.0754
      22    H13     22.212133   16.446865   22.513389 H          1 MOL1         0.0754
@<TRIPOS>BOND
    1     1     2    1
    2     1     3    2
    3     1     4    1
    4     4     5    1
    5     4     6    1
    6     4     7    1
    7     7     8    1
    8     7     9    1
    9     7    10    1
   10    10    11    1
   11    10    12    1
   12    10    13    1
   13    13    14    1
   14    13    15    1
   15    13    16    1
   16    16    17    1
   17    16    18    1
   18    16    19    1
   19    19    20    1
   20    19    21    1
   21    19    22    1
@<TRIPOS>SUBSTRUCTURE
       1 MOL1            1 RESIDUE      1      MOL     
@<SCITEGIC>MOL_PROPERTY
VConf Rank
SciTegic.value.IntegerValue
863

@<SCITEGIC>MOL_PROPERTY
Conf_Id
SciTegic.value.IntegerValue
37

@<SCITEGIC>MOL_PROPERTY
Delta U+W
SciTegic.value.DoubleValue
-0.345

@<SCITEGIC>MOL_PROPERTY
U+W
SciTegic.value.DoubleValue
-53.504

@<SCITEGIC>MOL_PROPERTY
Grad RMS
SciTegic.value.DoubleValue
0.000000

@<SCITEGIC>MOL_PROPERTY
U
SciTegic.value.DoubleValue
6.751

@<SCITEGIC>MOL_PROPERTY
W
SciTegic.value.DoubleValue
-60.255

@<SCITEGIC>MOL_PROPERTY
W(PB)
SciTegic.value.DoubleValue
-62.592

@<SCITEGIC>MOL_PROPERTY
W(SA)
SciTegic.value.DoubleValue
2.336

@<SCITEGIC>MOL_PROPERTY
Valence
SciTegic.value.DoubleValue
7.602

@<SCITEGIC>MOL_PROPERTY
Coulomb
SciTegic.value.DoubleValue
-1.744

@<SCITEGIC>MOL_PROPERTY
VdW
SciTegic.value.DoubleValue
0.894

@<SCITEGIC>MOL_PROPERTY
VdW6
SciTegic.value.DoubleValue
-7.110

@<SCITEGIC>MOL_PROPERTY
VdW12
SciTegic.value.DoubleValue
8.004

@<SCITEGIC>MOL_PROPERTY
Bond
SciTegic.value.DoubleValue
0.131

@<SCITEGIC>MOL_PROPERTY
Angle
SciTegic.value.DoubleValue
2.489

@<SCITEGIC>MOL_PROPERTY
Pdih
SciTegic.value.DoubleValue
4.982

@<SCITEGIC>MOL_PROPERTY
Idih
SciTegic.value.DoubleValue
0.001

@<SCITEGIC>MOL_PROPERTY
Tether
SciTegic.value.DoubleValue
0.000

@<TRIPOS>MOLECULE
guest-s21_confgen4.mol2 : confsearch ligand conformer 864
          22          21           1
SMALL
USER_CHARGES
 
@<TRIPOS>ATOM
       1    C1      23.463737   19.820599   21.201409 C.2        1 MOL1         0.6145
       2    O1      24.074668   20.395753   22.080279 O.co2      1 MOL1        -0.6735
       3    O2      23.721442   19.931596   20.019155 O.co2      1 MOL1        -0.6735
       4    C2      22.295443   18.927190   21.602806 C.3        1 MOL1        -0.1985
       5    H1      22.523976   18.486199   22.580536 H          1 MOL1         0.0740
       6    H2      22.233303   18.103055   20.881982 H          1 MOL1         0.0740
       7    C3      20.948148   19.688436   21.661600 C.3        1 MOL1        -0.1882
       8    H3      21.030626   20.517495   22.378124 H          1 MOL1         0.0742
       9    H4      20.740932   20.135059   20.679205 H          1 MOL1         0.0742
      10    C4      19.781917   18.762363   22.069823 C.3        1 MOL1        -0.1880
      11    H5      20.002377   18.316261   23.048372 H          1 MOL1         0.0742
      12    H6      19.700466   17.935918   21.350650 H          1 MOL1         0.0742
      13    C5      18.440039   19.527807   22.130822 C.3        1 MOL1        -0.1880
      14    H7      18.501514   20.323274   22.886064 H          1 MOL1         0.0742
      15    H8      18.268869   20.026464   21.166987 H          1 MOL1         0.0742
      16    C6      17.226833   18.618534   22.435232 C.3        1 MOL1        -0.1856
      17    H9      17.158287   17.825281   21.678025 H          1 MOL1         0.0742
      18    H10     16.308215   19.214428   22.344200 H          1 MOL1         0.0742
      19    C7      17.273008   17.988947   23.844380 C.3        1 MOL1        -0.2871
      20    H11     17.371895   18.762294   24.617226 H          1 MOL1         0.0754
      21    H12     18.114338   17.291929   23.944544 H          1 MOL1         0.0754
      22    H13     16.351194   17.427467   24.044183 H          1 MOL1         0.0754
@<TRIPOS>BOND
    1     1     2    1
    2     1     3    2
    3     1     4    1
    4     4     5    1
    5     4     6    1
    6     4     7    1
    7     7     8    1
    8     7     9    1
    9     7    10    1
   10    10    11    1
   11    10    12    1
   12    10    13    1
   13    13    14    1
   14    13    15    1
   15    13    16    1
   16    16    17    1
   17    16    18    1
   18    16    19    1
   19    19    20    1
   20    19    21    1
   21    19    22    1
@<TRIPOS>SUBSTRUCTURE
       1 MOL1            1 RESIDUE      1      MOL     
@<SCITEGIC>MOL_PROPERTY
VConf Rank
SciTegic.value.IntegerValue
864

@<SCITEGIC>MOL_PROPERTY
Conf_Id
SciTegic.value.IntegerValue
38

@<SCITEGIC>MOL_PROPERTY
Delta U+W
SciTegic.value.DoubleValue
-0.439

@<SCITEGIC>MOL_PROPERTY
U+W
SciTegic.value.DoubleValue
-53.598

@<SCITEGIC>MOL_PROPERTY
Grad RMS
SciTegic.value.DoubleValue
0.000000

@<SCITEGIC>MOL_PROPERTY
U
SciTegic.value.DoubleValue
6.751

@<SCITEGIC>MOL_PROPERTY
W
SciTegic.value.DoubleValue
-60.350

@<SCITEGIC>MOL_PROPERTY
W(PB)
SciTegic.value.DoubleValue
-62.659

@<SCITEGIC>MOL_PROPERTY
W(SA)
SciTegic.value.DoubleValue
2.309

@<SCITEGIC>MOL_PROPERTY
Valence
SciTegic.value.DoubleValue
7.602

@<SCITEGIC>MOL_PROPERTY
Coulomb
SciTegic.value.DoubleValue
-1.744

@<SCITEGIC>MOL_PROPERTY
VdW
SciTegic.value.DoubleValue
0.893

@<SCITEGIC>MOL_PROPERTY
VdW6
SciTegic.value.DoubleValue
-7.110

@<SCITEGIC>MOL_PROPERTY
VdW12
SciTegic.value.DoubleValue
8.004

@<SCITEGIC>MOL_PROPERTY
Bond
SciTegic.value.DoubleValue
0.131

@<SCITEGIC>MOL_PROPERTY
Angle
SciTegic.value.DoubleValue
2.489

@<SCITEGIC>MOL_PROPERTY
Pdih
SciTegic.value.DoubleValue
4.981

@<SCITEGIC>MOL_PROPERTY
Idih
SciTegic.value.DoubleValue
0.001

@<SCITEGIC>MOL_PROPERTY
Tether
SciTegic.value.DoubleValue
0.000

@<TRIPOS>MOLECULE
guest-s21_confgen4.mol2 : confsearch ligand conformer 865
          22          21           1
SMALL
USER_CHARGES
 
@<TRIPOS>ATOM
       1    C1      22.256518   21.871272   21.633940 C.2        1 MOL1         0.6145
       2    O1      23.394447   21.896928   22.059403 O.co2      1 MOL1        -0.6735
       3    O2      21.641769   22.863808   21.297061 O.co2      1 MOL1        -0.6735
       4    C2      21.553633   20.521745   21.538956 C.3        1 MOL1        -0.1985
       5    H1      22.311011   19.758317   21.324546 H          1 MOL1         0.0740
       6    H2      20.876522   20.559481   20.678399 H          1 MOL1         0.0740
       7    C3      20.777880   20.157565   22.831701 C.3        1 MOL1        -0.1882
       8    H3      21.466750   20.225261   23.685119 H          1 MOL1         0.0742
       9    H4      19.990018   20.902430   23.009871 H          1 MOL1         0.0742
      10    C4      20.160518   18.738777   22.806632 C.3        1 MOL1        -0.1880
      11    H5      19.762040   18.524417   23.806429 H          1 MOL1         0.0742
      12    H6      20.949378   17.997475   22.619979 H          1 MOL1         0.0742
      13    C5      19.032494   18.577059   21.758095 C.3        1 MOL1        -0.1880
      14    H7      18.244558   19.319605   21.943797 H          1 MOL1         0.0742
      15    H8      19.430302   18.788160   20.757463 H          1 MOL1         0.0742
      16    C6      18.412792   17.160156   21.736452 C.3        1 MOL1        -0.1856
      17    H9      19.199703   16.413325   21.562363 H          1 MOL1         0.0742
      18    H10     17.725184   17.090571   20.882286 H          1 MOL1         0.0742
      19    C7      17.637664   16.808866   23.025028 C.3        1 MOL1        -0.2871
      20    H11     18.306928   16.745431   23.891910 H          1 MOL1         0.0754
      21    H12     17.139314   15.836534   22.919493 H          1 MOL1         0.0754
      22    H13     16.867534   17.561653   23.237951 H          1 MOL1         0.0754
@<TRIPOS>BOND
    1     1     2    1
    2     1     3    2
    3     1     4    1
    4     4     5    1
    5     4     6    1
    6     4     7    1
    7     7     8    1
    8     7     9    1
    9     7    10    1
   10    10    11    1
   11    10    12    1
   12    10    13    1
   13    13    14    1
   14    13    15    1
   15    13    16    1
   16    16    17    1
   17    16    18    1
   18    16    19    1
   19    19    20    1
   20    19    21    1
   21    19    22    1
@<TRIPOS>SUBSTRUCTURE
       1 MOL1            1 RESIDUE      1      MOL     
@<SCITEGIC>MOL_PROPERTY
VConf Rank
SciTegic.value.IntegerValue
865

@<SCITEGIC>MOL_PROPERTY
Conf_Id
SciTegic.value.IntegerValue
60

@<SCITEGIC>MOL_PROPERTY
Delta U+W
SciTegic.value.DoubleValue
0.386

@<SCITEGIC>MOL_PROPERTY
U+W
SciTegic.value.DoubleValue
-52.773

@<SCITEGIC>MOL_PROPERTY
Grad RMS
SciTegic.value.DoubleValue
0.000000

@<SCITEGIC>MOL_PROPERTY
U
SciTegic.value.DoubleValue
7.689

@<SCITEGIC>MOL_PROPERTY
W
SciTegic.value.DoubleValue
-60.463

@<SCITEGIC>MOL_PROPERTY
W(PB)
SciTegic.value.DoubleValue
-62.772

@<SCITEGIC>MOL_PROPERTY
W(SA)
SciTegic.value.DoubleValue
2.309

@<SCITEGIC>MOL_PROPERTY
Valence
SciTegic.value.DoubleValue
8.197

@<SCITEGIC>MOL_PROPERTY
Coulomb
SciTegic.value.DoubleValue
-1.561

@<SCITEGIC>MOL_PROPERTY
VdW
SciTegic.value.DoubleValue
1.053

@<SCITEGIC>MOL_PROPERTY
VdW6
SciTegic.value.DoubleValue
-7.737

@<SCITEGIC>MOL_PROPERTY
VdW12
SciTegic.value.DoubleValue
8.790

@<SCITEGIC>MOL_PROPERTY
Bond
SciTegic.value.DoubleValue
0.181

@<SCITEGIC>MOL_PROPERTY
Angle
SciTegic.value.DoubleValue
2.780

@<SCITEGIC>MOL_PROPERTY
Pdih
SciTegic.value.DoubleValue
5.235

@<SCITEGIC>MOL_PROPERTY
Idih
SciTegic.value.DoubleValue
0.001

@<SCITEGIC>MOL_PROPERTY
Tether
SciTegic.value.DoubleValue
0.000

@<TRIPOS>MOLECULE
guest-s21_confgen4.mol2 : confsearch ligand conformer 866
          22          21           1
SMALL
USER_CHARGES
 
@<TRIPOS>ATOM
       1    C1      16.568659   17.693665   20.851943 C.2        1 MOL1         0.6145
       2    O1      15.659783   18.400890   21.239643 O.co2      1 MOL1        -0.6735
       3    O2      16.407097   16.575480   20.404594 O.co2      1 MOL1        -0.6735
       4    C2      17.992221   18.229846   20.953274 C.3        1 MOL1        -0.1985
       5    H1      17.951052   19.313637   20.797822 H          1 MOL1         0.0740
       6    H2      18.575386   17.804111   20.127997 H          1 MOL1         0.0740
       7    C3      18.663494   17.895593   22.310949 C.3        1 MOL1        -0.1882
       8    H3      18.098638   18.367895   23.126524 H          1 MOL1         0.0742
       9    H4      18.598761   16.811279   22.476844 H          1 MOL1         0.0742
      10    C4      20.149705   18.319453   22.389947 C.3        1 MOL1        -0.1880
      11    H5      20.709762   17.852184   21.568568 H          1 MOL1         0.0742
      12    H6      20.568374   17.916689   23.320981 H          1 MOL1         0.0742
      13    C5      20.354524   19.854020   22.355730 C.3        1 MOL1        -0.1880
      14    H7      19.939128   20.257717   21.423767 H          1 MOL1         0.0742
      15    H8      19.792881   20.321334   23.176021 H          1 MOL1         0.0742
      16    C6      21.839779   20.277281   22.439282 C.3        1 MOL1        -0.1856
      17    H9      21.906086   21.361095   22.271363 H          1 MOL1         0.0742
      18    H10     22.407413   19.802615   21.627016 H          1 MOL1         0.0742
      19    C7      22.497545   19.946110   23.796603 C.3        1 MOL1        -0.2871
      20    H11     21.926682   20.382138   24.626735 H          1 MOL1         0.0754
      21    H12     23.516645   20.351889   23.837802 H          1 MOL1         0.0754
      22    H13     22.565838   18.862959   23.956431 H          1 MOL1         0.0754
@<TRIPOS>BOND
    1     1     2    1
    2     1     3    2
    3     1     4    1
    4     4     5    1
    5     4     6    1
    6     4     7    1
    7     7     8    1
    8     7     9    1
    9     7    10    1
   10    10    11    1
   11    10    12    1
   12    10    13    1
   13    13    14    1
   14    13    15    1
   15    13    16    1
   16    16    17    1
   17    16    18    1
   18    16    19    1
   19    19    20    1
   20    19    21    1
   21    19    22    1
@<TRIPOS>SUBSTRUCTURE
       1 MOL1            1 RESIDUE      1      MOL     
@<SCITEGIC>MOL_PROPERTY
VConf Rank
SciTegic.value.IntegerValue
866

@<SCITEGIC>MOL_PROPERTY
Conf_Id
SciTegic.value.IntegerValue
28

@<SCITEGIC>MOL_PROPERTY
Delta U+W
SciTegic.value.DoubleValue
0.351

@<SCITEGIC>MOL_PROPERTY
U+W
SciTegic.value.DoubleValue
-52.808

@<SCITEGIC>MOL_PROPERTY
Grad RMS
SciTegic.value.DoubleValue
0.000000

@<SCITEGIC>MOL_PROPERTY
U
SciTegic.value.DoubleValue
7.689

@<SCITEGIC>MOL_PROPERTY
W
SciTegic.value.DoubleValue
-60.498

@<SCITEGIC>MOL_PROPERTY
W(PB)
SciTegic.value.DoubleValue
-62.768

@<SCITEGIC>MOL_PROPERTY
W(SA)
SciTegic.value.DoubleValue
2.270

@<SCITEGIC>MOL_PROPERTY
Valence
SciTegic.value.DoubleValue
8.197

@<SCITEGIC>MOL_PROPERTY
Coulomb
SciTegic.value.DoubleValue
-1.561

@<SCITEGIC>MOL_PROPERTY
VdW
SciTegic.value.DoubleValue
1.053

@<SCITEGIC>MOL_PROPERTY
VdW6
SciTegic.value.DoubleValue
-7.737

@<SCITEGIC>MOL_PROPERTY
VdW12
SciTegic.value.DoubleValue
8.791

@<SCITEGIC>MOL_PROPERTY
Bond
SciTegic.value.DoubleValue
0.181

@<SCITEGIC>MOL_PROPERTY
Angle
SciTegic.value.DoubleValue
2.780

@<SCITEGIC>MOL_PROPERTY
Pdih
SciTegic.value.DoubleValue
5.235

@<SCITEGIC>MOL_PROPERTY
Idih
SciTegic.value.DoubleValue
0.001

@<SCITEGIC>MOL_PROPERTY
Tether
SciTegic.value.DoubleValue
0.000

@<TRIPOS>MOLECULE
guest-s21_confgen4.mol2 : confsearch ligand conformer 867
          22          21           1
SMALL
USER_CHARGES
 
@<TRIPOS>ATOM
       1    C1      18.432744   17.634069   25.457179 C.2        1 MOL1         0.6145
       2    O1      18.654619   16.474995   25.746644 O.co2      1 MOL1        -0.6735
       3    O2      18.463938   18.545994   26.259597 O.co2      1 MOL1        -0.6735
       4    C2      18.117295   17.965211   24.002821 C.3        1 MOL1        -0.1985
       5    H1      17.428886   18.818768   23.989228 H          1 MOL1         0.0740
       6    H2      17.584242   17.111585   23.567166 H          1 MOL1         0.0740
       7    C3      19.383244   18.286999   23.170890 C.3        1 MOL1        -0.1882
       8    H3      19.909254   19.130195   23.637584 H          1 MOL1         0.0742
       9    H4      20.065867   17.426548   23.201771 H          1 MOL1         0.0742
      10    C4      19.034052   18.623515   21.702597 C.3        1 MOL1        -0.1880
      11    H5      18.394048   19.515838   21.668790 H          1 MOL1         0.0742
      12    H6      18.442475   17.800461   21.278827 H          1 MOL1         0.0742
      13    C5      20.277208   18.843868   20.808411 C.3        1 MOL1        -0.1880
      14    H7      20.915468   17.950203   20.838727 H          1 MOL1         0.0742
      15    H8      19.942523   18.951110   19.767539 H          1 MOL1         0.0742
      16    C6      21.105113   20.088841   21.199444 C.3        1 MOL1        -0.1856
      17    H9      21.515695   19.968140   22.210489 H          1 MOL1         0.0742
      18    H10     20.455240   20.974520   21.220519 H          1 MOL1         0.0742
      19    C7      22.265564   20.328713   20.212769 C.3        1 MOL1        -0.2871
      20    H11     21.888743   20.492452   19.194657 H          1 MOL1         0.0754
      21    H12     22.947185   19.468278   20.192047 H          1 MOL1         0.0754
      22    H13     22.845494   21.213588   20.505593 H          1 MOL1         0.0754
@<TRIPOS>BOND
    1     1     2    1
    2     1     3    2
    3     1     4    1
    4     4     5    1
    5     4     6    1
    6     4     7    1
    7     7     8    1
    8     7     9    1
    9     7    10    1
   10    10    11    1
   11    10    12    1
   12    10    13    1
   13    13    14    1
   14    13    15    1
   15    13    16    1
   16    16    17    1
   17    16    18    1
   18    16    19    1
   19    19    20    1
   20    19    21    1
   21    19    22    1
@<TRIPOS>SUBSTRUCTURE
       1 MOL1            1 RESIDUE      1      MOL     
@<SCITEGIC>MOL_PROPERTY
VConf Rank
SciTegic.value.IntegerValue
867

@<SCITEGIC>MOL_PROPERTY
Conf_Id
SciTegic.value.IntegerValue
50

@<SCITEGIC>MOL_PROPERTY
Delta U+W
SciTegic.value.DoubleValue
-0.486

@<SCITEGIC>MOL_PROPERTY
U+W
SciTegic.value.DoubleValue
-53.646

@<SCITEGIC>MOL_PROPERTY
Grad RMS
SciTegic.value.DoubleValue
0.000000

@<SCITEGIC>MOL_PROPERTY
U
SciTegic.value.DoubleValue
7.026

@<SCITEGIC>MOL_PROPERTY
W
SciTegic.value.DoubleValue
-60.672

@<SCITEGIC>MOL_PROPERTY
W(PB)
SciTegic.value.DoubleValue
-62.964

@<SCITEGIC>MOL_PROPERTY
W(SA)
SciTegic.value.DoubleValue
2.292

@<SCITEGIC>MOL_PROPERTY
Valence
SciTegic.value.DoubleValue
7.637

@<SCITEGIC>MOL_PROPERTY
Coulomb
SciTegic.value.DoubleValue
-1.488

@<SCITEGIC>MOL_PROPERTY
VdW
SciTegic.value.DoubleValue
0.877

@<SCITEGIC>MOL_PROPERTY
VdW6
SciTegic.value.DoubleValue
-7.165

@<SCITEGIC>MOL_PROPERTY
VdW12
SciTegic.value.DoubleValue
8.043

@<SCITEGIC>MOL_PROPERTY
Bond
SciTegic.value.DoubleValue
0.134

@<SCITEGIC>MOL_PROPERTY
Angle
SciTegic.value.DoubleValue
2.513

@<SCITEGIC>MOL_PROPERTY
Pdih
SciTegic.value.DoubleValue
4.990

@<SCITEGIC>MOL_PROPERTY
Idih
SciTegic.value.DoubleValue
0.001

@<SCITEGIC>MOL_PROPERTY
Tether
SciTegic.value.DoubleValue
0.000

@<TRIPOS>MOLECULE
guest-s21_confgen4.mol2 : confsearch ligand conformer 868
          22          21           1
SMALL
USER_CHARGES
 
@<TRIPOS>ATOM
       1    C1      22.068176   21.765771   21.261350 C.2        1 MOL1         0.6145
       2    O1      22.843820   22.163709   22.107809 O.co2      1 MOL1        -0.6735
       3    O2      21.464887   22.499127   20.503269 O.co2      1 MOL1        -0.6735
       4    C2      21.822890   20.264584   21.158387 C.3        1 MOL1        -0.1985
       5    H1      22.751532   19.748450   21.430127 H          1 MOL1         0.0740
       6    H2      21.613556   20.024661   20.108975 H          1 MOL1         0.0740
       7    C3      20.659010   19.782005   22.058830 C.3        1 MOL1        -0.1882
       8    H3      20.879518   20.037531   23.104482 H          1 MOL1         0.0742
       9    H4      19.746900   20.326585   21.781421 H          1 MOL1         0.0742
      10    C4      20.429520   18.258141   21.931392 C.3        1 MOL1        -0.1880
      11    H5      21.373976   17.736488   22.138379 H          1 MOL1         0.0742
      12    H6      20.157363   18.009383   20.896482 H          1 MOL1         0.0742
      13    C5      19.348622   17.714885   22.895805 C.3        1 MOL1        -0.1880
      14    H7      19.341173   16.618405   22.827960 H          1 MOL1         0.0742
      15    H8      19.622387   17.959968   23.931140 H          1 MOL1         0.0742
      16    C6      17.929111   18.245408   22.592781 C.3        1 MOL1        -0.1856
      17    H9      17.675740   18.047187   21.542202 H          1 MOL1         0.0742
      18    H10     17.894272   19.333972   22.731250 H          1 MOL1         0.0742
      19    C7      16.873793   17.590097   23.506340 C.3        1 MOL1        -0.2871
      20    H11     17.087795   17.795754   24.563361 H          1 MOL1         0.0754
      21    H12     16.853537   16.501412   23.365940 H          1 MOL1         0.0754
      22    H13     15.872291   17.979232   23.281314 H          1 MOL1         0.0754
@<TRIPOS>BOND
    1     1     2    1
    2     1     3    2
    3     1     4    1
    4     4     5    1
    5     4     6    1
    6     4     7    1
    7     7     8    1
    8     7     9    1
    9     7    10    1
   10    10    11    1
   11    10    12    1
   12    10    13    1
   13    13    14    1
   14    13    15    1
   15    13    16    1
   16    16    17    1
   17    16    18    1
   18    16    19    1
   19    19    20    1
   20    19    21    1
   21    19    22    1
@<TRIPOS>SUBSTRUCTURE
       1 MOL1            1 RESIDUE      1      MOL     
@<SCITEGIC>MOL_PROPERTY
VConf Rank
SciTegic.value.IntegerValue
868

@<SCITEGIC>MOL_PROPERTY
Conf_Id
SciTegic.value.IntegerValue
51

@<SCITEGIC>MOL_PROPERTY
Delta U+W
SciTegic.value.DoubleValue
-0.517

@<SCITEGIC>MOL_PROPERTY
U+W
SciTegic.value.DoubleValue
-53.677

@<SCITEGIC>MOL_PROPERTY
Grad RMS
SciTegic.value.DoubleValue
0.000000

@<SCITEGIC>MOL_PROPERTY
U
SciTegic.value.DoubleValue
7.026

@<SCITEGIC>MOL_PROPERTY
W
SciTegic.value.DoubleValue
-60.703

@<SCITEGIC>MOL_PROPERTY
W(PB)
SciTegic.value.DoubleValue
-63.007

@<SCITEGIC>MOL_PROPERTY
W(SA)
SciTegic.value.DoubleValue
2.304

@<SCITEGIC>MOL_PROPERTY
Valence
SciTegic.value.DoubleValue
7.638

@<SCITEGIC>MOL_PROPERTY
Coulomb
SciTegic.value.DoubleValue
-1.488

@<SCITEGIC>MOL_PROPERTY
VdW
SciTegic.value.DoubleValue
0.877

@<SCITEGIC>MOL_PROPERTY
VdW6
SciTegic.value.DoubleValue
-7.165

@<SCITEGIC>MOL_PROPERTY
VdW12
SciTegic.value.DoubleValue
8.042

@<SCITEGIC>MOL_PROPERTY
Bond
SciTegic.value.DoubleValue
0.134

@<SCITEGIC>MOL_PROPERTY
Angle
SciTegic.value.DoubleValue
2.513

@<SCITEGIC>MOL_PROPERTY
Pdih
SciTegic.value.DoubleValue
4.990

@<SCITEGIC>MOL_PROPERTY
Idih
SciTegic.value.DoubleValue
0.001

@<SCITEGIC>MOL_PROPERTY
Tether
SciTegic.value.DoubleValue
0.000

@<TRIPOS>MOLECULE
guest-s21_confgen4.mol2 : confsearch ligand conformer 869
          22          21           1
SMALL
USER_CHARGES
 
@<TRIPOS>ATOM
       1    C1      22.490078   19.858918   24.531341 C.2        1 MOL1         0.6145
       2    O1      22.097834   20.030142   25.668763 O.co2      1 MOL1        -0.6735
       3    O2      23.326310   19.031757   24.225872 O.co2      1 MOL1        -0.6735
       4    C2      21.913353   20.745213   23.430885 C.3        1 MOL1        -0.1985
       5    H1      22.588594   20.715204   22.567140 H          1 MOL1         0.0740
       6    H2      21.919964   21.776422   23.803184 H          1 MOL1         0.0740
       7    C3      20.474556   20.359507   22.999506 C.3        1 MOL1        -0.1882
       8    H3      19.816499   20.366687   23.879598 H          1 MOL1         0.0742
       9    H4      20.091227   21.125512   22.311874 H          1 MOL1         0.0742
      10    C4      20.411135   18.978231   22.309838 C.3        1 MOL1        -0.1880
      11    H5      20.777193   18.203771   22.998041 H          1 MOL1         0.0742
      12    H6      21.080455   18.972008   21.438639 H          1 MOL1         0.0742
      13    C5      18.975942   18.628679   21.860966 C.3        1 MOL1        -0.1880
      14    H7      18.307255   18.635073   22.732703 H          1 MOL1         0.0742
      15    H8      18.608678   19.400220   21.170387 H          1 MOL1         0.0742
      16    C6      18.911681   17.249046   21.172832 C.3        1 MOL1        -0.1856
      17    H9      19.276688   16.474358   21.861404 H          1 MOL1         0.0742
      18    H10     19.578157   17.239395   20.299231 H          1 MOL1         0.0742
      19    C7      17.476918   16.903137   20.726564 C.3        1 MOL1        -0.2871
      20    H11     16.794346   16.874829   21.586038 H          1 MOL1         0.0754
      21    H12     17.449738   15.919639   20.239658 H          1 MOL1         0.0754
      22    H13     17.098031   17.645679   20.012090 H          1 MOL1         0.0754
@<TRIPOS>BOND
    1     1     2    1
    2     1     3    2
    3     1     4    1
    4     4     5    1
    5     4     6    1
    6     4     7    1
    7     7     8    1
    8     7     9    1
    9     7    10    1
   10    10    11    1
   11    10    12    1
   12    10    13    1
   13    13    14    1
   14    13    15    1
   15    13    16    1
   16    16    17    1
   17    16    18    1
   18    16    19    1
   19    19    20    1
   20    19    21    1
   21    19    22    1
@<TRIPOS>SUBSTRUCTURE
       1 MOL1            1 RESIDUE      1      MOL     
@<SCITEGIC>MOL_PROPERTY
VConf Rank
SciTegic.value.IntegerValue
869

@<SCITEGIC>MOL_PROPERTY
Conf_Id
SciTegic.value.IntegerValue
43

@<SCITEGIC>MOL_PROPERTY
Delta U+W
SciTegic.value.DoubleValue
-0.129

@<SCITEGIC>MOL_PROPERTY
U+W
SciTegic.value.DoubleValue
-53.289

@<SCITEGIC>MOL_PROPERTY
Grad RMS
SciTegic.value.DoubleValue
0.000000

@<SCITEGIC>MOL_PROPERTY
U
SciTegic.value.DoubleValue
7.937

@<SCITEGIC>MOL_PROPERTY
W
SciTegic.value.DoubleValue
-61.225

@<SCITEGIC>MOL_PROPERTY
W(PB)
SciTegic.value.DoubleValue
-63.523

@<SCITEGIC>MOL_PROPERTY
W(SA)
SciTegic.value.DoubleValue
2.297

@<SCITEGIC>MOL_PROPERTY
Valence
SciTegic.value.DoubleValue
7.358

@<SCITEGIC>MOL_PROPERTY
Coulomb
SciTegic.value.DoubleValue
-0.022

@<SCITEGIC>MOL_PROPERTY
VdW
SciTegic.value.DoubleValue
0.601

@<SCITEGIC>MOL_PROPERTY
VdW6
SciTegic.value.DoubleValue
-7.363

@<SCITEGIC>MOL_PROPERTY
VdW12
SciTegic.value.DoubleValue
7.964

@<SCITEGIC>MOL_PROPERTY
Bond
SciTegic.value.DoubleValue
0.121

@<SCITEGIC>MOL_PROPERTY
Angle
SciTegic.value.DoubleValue
2.425

@<SCITEGIC>MOL_PROPERTY
Pdih
SciTegic.value.DoubleValue
4.811

@<SCITEGIC>MOL_PROPERTY
Idih
SciTegic.value.DoubleValue
0.000

@<SCITEGIC>MOL_PROPERTY
Tether
SciTegic.value.DoubleValue
0.000

@<TRIPOS>MOLECULE
guest-s21_confgen4.mol2 : confsearch ligand conformer 870
          22          21           1
SMALL
USER_CHARGES
 
@<TRIPOS>ATOM
       1    C1      21.121147   16.018478   21.531026 C.2        1 MOL1         0.6145
       2    O1      21.559189   15.422629   22.495384 O.co2      1 MOL1        -0.6735
       3    O2      21.808234   16.384926   20.598063 O.co2      1 MOL1        -0.6735
       4    C2      19.622913   16.304965   21.482575 C.3        1 MOL1        -0.1985
       5    H1      19.103317   15.382749   21.768198 H          1 MOL1         0.0740
       6    H2      19.340829   16.519856   20.444714 H          1 MOL1         0.0740
       7    C3      19.171676   17.462443   22.410815 C.3        1 MOL1        -0.1882
       8    H3      18.074162   17.506710   22.417519 H          1 MOL1         0.0742
       9    H4      19.485802   17.246010   23.441414 H          1 MOL1         0.0742
      10    C4      19.734020   18.832168   21.968988 C.3        1 MOL1        -0.1880
      11    H5      19.428258   19.037784   20.933979 H          1 MOL1         0.0742
      12    H6      20.832378   18.801096   21.976240 H          1 MOL1         0.0742
      13    C5      19.247142   19.973373   22.887715 C.3        1 MOL1        -0.1880
      14    H7      18.149064   20.008345   22.879929 H          1 MOL1         0.0742
      15    H8      19.553326   19.767051   23.922506 H          1 MOL1         0.0742
      16    C6      19.808946   21.341470   22.447560 C.3        1 MOL1        -0.1856
      17    H9      19.503280   21.552079   21.413309 H          1 MOL1         0.0742
      18    H10     20.907351   21.310823   22.455870 H          1 MOL1         0.0742
      19    C7      19.321137   22.478499   23.367650 C.3        1 MOL1        -0.2871
      20    H11     18.225799   22.552275   23.353968 H          1 MOL1         0.0754
      21    H12     19.729926   23.443313   23.040372 H          1 MOL1         0.0754
      22    H13     19.640491   22.309195   24.404352 H          1 MOL1         0.0754
@<TRIPOS>BOND
    1     1     2    1
    2     1     3    2
    3     1     4    1
    4     4     5    1
    5     4     6    1
    6     4     7    1
    7     7     8    1
    8     7     9    1
    9     7    10    1
   10    10    11    1
   11    10    12    1
   12    10    13    1
   13    13    14    1
   14    13    15    1
   15    13    16    1
   16    16    17    1
   17    16    18    1
   18    16    19    1
   19    19    20    1
   20    19    21    1
   21    19    22    1
@<TRIPOS>SUBSTRUCTURE
       1 MOL1            1 RESIDUE      1      MOL     
@<SCITEGIC>MOL_PROPERTY
VConf Rank
SciTegic.value.IntegerValue
870

@<SCITEGIC>MOL_PROPERTY
Conf_Id
SciTegic.value.IntegerValue
44

@<SCITEGIC>MOL_PROPERTY
Delta U+W
SciTegic.value.DoubleValue
-0.155

@<SCITEGIC>MOL_PROPERTY
U+W
SciTegic.value.DoubleValue
-53.314

@<SCITEGIC>MOL_PROPERTY
Grad RMS
SciTegic.value.DoubleValue
0.000000

@<SCITEGIC>MOL_PROPERTY
U
SciTegic.value.DoubleValue
7.937

@<SCITEGIC>MOL_PROPERTY
W
SciTegic.value.DoubleValue
-61.252

@<SCITEGIC>MOL_PROPERTY
W(PB)
SciTegic.value.DoubleValue
-63.556

@<SCITEGIC>MOL_PROPERTY
W(SA)
SciTegic.value.DoubleValue
2.304

@<SCITEGIC>MOL_PROPERTY
Valence
SciTegic.value.DoubleValue
7.358

@<SCITEGIC>MOL_PROPERTY
Coulomb
SciTegic.value.DoubleValue
-0.021

@<SCITEGIC>MOL_PROPERTY
VdW
SciTegic.value.DoubleValue
0.600

@<SCITEGIC>MOL_PROPERTY
VdW6
SciTegic.value.DoubleValue
-7.363

@<SCITEGIC>MOL_PROPERTY
VdW12
SciTegic.value.DoubleValue
7.964

@<SCITEGIC>MOL_PROPERTY
Bond
SciTegic.value.DoubleValue
0.121

@<SCITEGIC>MOL_PROPERTY
Angle
SciTegic.value.DoubleValue
2.425

@<SCITEGIC>MOL_PROPERTY
Pdih
SciTegic.value.DoubleValue
4.811

@<SCITEGIC>MOL_PROPERTY
Idih
SciTegic.value.DoubleValue
0.001

@<SCITEGIC>MOL_PROPERTY
Tether
SciTegic.value.DoubleValue
0.000

@<TRIPOS>MOLECULE
guest-s21_confgen4.mol2 : confsearch ligand conformer 871
          22          21           1
SMALL
USER_CHARGES
 
@<TRIPOS>ATOM
       1    C1      16.215565   19.150309   22.096973 C.2        1 MOL1         0.6145
       2    O1      15.723413   18.045493   22.215689 O.co2      1 MOL1        -0.6735
       3    O2      15.931939   19.919662   21.200023 O.co2      1 MOL1        -0.6735
       4    C2      17.230795   19.601611   23.143369 C.3        1 MOL1        -0.1985
       5    H1      16.818541   19.351552   24.128026 H          1 MOL1         0.0740
       6    H2      17.314286   20.694428   23.102504 H          1 MOL1         0.0740
       7    C3      18.630512   18.951686   22.988400 C.3        1 MOL1        -0.1882
       8    H3      19.234577   19.214573   23.865988 H          1 MOL1         0.0742
       9    H4      18.525975   17.857854   22.990736 H          1 MOL1         0.0742
      10    C4      19.357090   19.406676   21.699882 C.3        1 MOL1        -0.1880
      11    H5      19.498338   20.495937   21.718878 H          1 MOL1         0.0742
      12    H6      18.718738   19.193037   20.831632 H          1 MOL1         0.0742
      13    C5      20.721617   18.710453   21.482716 C.3        1 MOL1        -0.1880
      14    H7      20.579916   17.621192   21.464004 H          1 MOL1         0.0742
      15    H8      21.100660   18.991103   20.490513 H          1 MOL1         0.0742
      16    C6      21.780272   19.080426   22.546103 C.3        1 MOL1        -0.1856
      17    H9      21.457845   18.736106   23.537415 H          1 MOL1         0.0742
      18    H10     21.882332   20.172915   22.603077 H          1 MOL1         0.0742
      19    C7      23.151344   18.454563   22.220225 C.3        1 MOL1        -0.2871
      20    H11     23.084015   17.359336   22.183785 H          1 MOL1         0.0754
      21    H12     23.890944   18.723450   22.985571 H          1 MOL1         0.0754
      22    H13     23.524344   18.807791   21.249937 H          1 MOL1         0.0754
@<TRIPOS>BOND
    1     1     2    1
    2     1     3    2
    3     1     4    1
    4     4     5    1
    5     4     6    1
    6     4     7    1
    7     7     8    1
    8     7     9    1
    9     7    10    1
   10    10    11    1
   11    10    12    1
   12    10    13    1
   13    13    14    1
   14    13    15    1
   15    13    16    1
   16    16    17    1
   17    16    18    1
   18    16    19    1
   19    19    20    1
   20    19    21    1
   21    19    22    1
@<TRIPOS>SUBSTRUCTURE
       1 MOL1            1 RESIDUE      1      MOL     
@<SCITEGIC>MOL_PROPERTY
VConf Rank
SciTegic.value.IntegerValue
871

@<SCITEGIC>MOL_PROPERTY
Conf_Id
SciTegic.value.IntegerValue
53

@<SCITEGIC>MOL_PROPERTY
Delta U+W
SciTegic.value.DoubleValue
0.723

@<SCITEGIC>MOL_PROPERTY
U+W
SciTegic.value.DoubleValue
-52.436

@<SCITEGIC>MOL_PROPERTY
Grad RMS
SciTegic.value.DoubleValue
0.000000

@<SCITEGIC>MOL_PROPERTY
U
SciTegic.value.DoubleValue
8.587

@<SCITEGIC>MOL_PROPERTY
W
SciTegic.value.DoubleValue
-61.022

@<SCITEGIC>MOL_PROPERTY
W(PB)
SciTegic.value.DoubleValue
-63.285

@<SCITEGIC>MOL_PROPERTY
W(SA)
SciTegic.value.DoubleValue
2.263

@<SCITEGIC>MOL_PROPERTY
Valence
SciTegic.value.DoubleValue
7.933

@<SCITEGIC>MOL_PROPERTY
Coulomb
SciTegic.value.DoubleValue
-0.124

@<SCITEGIC>MOL_PROPERTY
VdW
SciTegic.value.DoubleValue
0.778

@<SCITEGIC>MOL_PROPERTY
VdW6
SciTegic.value.DoubleValue
-7.981

@<SCITEGIC>MOL_PROPERTY
VdW12
SciTegic.value.DoubleValue
8.759

@<SCITEGIC>MOL_PROPERTY
Bond
SciTegic.value.DoubleValue
0.160

@<SCITEGIC>MOL_PROPERTY
Angle
SciTegic.value.DoubleValue
2.698

@<SCITEGIC>MOL_PROPERTY
Pdih
SciTegic.value.DoubleValue
5.074

@<SCITEGIC>MOL_PROPERTY
Idih
SciTegic.value.DoubleValue
0.001

@<SCITEGIC>MOL_PROPERTY
Tether
SciTegic.value.DoubleValue
0.000

@<TRIPOS>MOLECULE
guest-s21_confgen4.mol2 : confsearch ligand conformer 872
          22          21           1
SMALL
USER_CHARGES
 
@<TRIPOS>ATOM
       1    C1      22.273953   20.482298   23.968066 C.2        1 MOL1         0.6145
       2    O1      23.276846   19.805733   23.853900 O.co2      1 MOL1        -0.6735
       3    O2      22.251296   21.563053   24.523077 O.co2      1 MOL1        -0.6735
       4    C2      20.977424   19.956817   23.362360 C.3        1 MOL1        -0.1985
       5    H1      20.142692   20.327999   23.968766 H          1 MOL1         0.0740
       6    H2      20.989853   18.864609   23.449872 H          1 MOL1         0.0740
       7    C3      20.793192   20.376371   21.882101 C.3        1 MOL1        -0.1882
       8    H3      20.922291   21.464944   21.806189 H          1 MOL1         0.0742
       9    H4      21.594238   19.929110   21.277503 H          1 MOL1         0.0742
      10    C4      19.416195   20.001763   21.278599 C.3        1 MOL1        -0.1880
      11    H5      19.388771   20.390581   20.251460 H          1 MOL1         0.0742
      12    H6      18.613494   20.524329   21.816699 H          1 MOL1         0.0742
      13    C5      19.126451   18.480243   21.226310 C.3        1 MOL1        -0.1880
      14    H7      18.570909   18.263312   20.303648 H          1 MOL1         0.0742
      15    H8      20.068117   17.918880   21.154896 H          1 MOL1         0.0742
      16    C6      18.287093   17.974571   22.422356 C.3        1 MOL1        -0.1856
      17    H9      17.325013   18.504691   22.446263 H          1 MOL1         0.0742
      18    H10     18.791548   18.197372   23.370117 H          1 MOL1         0.0742
      19    C7      18.029414   16.457160   22.330722 C.3        1 MOL1        -0.2871
      20    H11     17.488019   16.205203   21.409450 H          1 MOL1         0.0754
      21    H12     17.427039   16.114957   23.182235 H          1 MOL1         0.0754
      22    H13     18.974141   15.897870   22.337338 H          1 MOL1         0.0754
@<TRIPOS>BOND
    1     1     2    1
    2     1     3    2
    3     1     4    1
    4     4     5    1
    5     4     6    1
    6     4     7    1
    7     7     8    1
    8     7     9    1
    9     7    10    1
   10    10    11    1
   11    10    12    1
   12    10    13    1
   13    13    14    1
   14    13    15    1
   15    13    16    1
   16    16    17    1
   17    16    18    1
   18    16    19    1
   19    19    20    1
   20    19    21    1
   21    19    22    1
@<TRIPOS>SUBSTRUCTURE
       1 MOL1            1 RESIDUE      1      MOL     
@<SCITEGIC>MOL_PROPERTY
VConf Rank
SciTegic.value.IntegerValue
872

@<SCITEGIC>MOL_PROPERTY
Conf_Id
SciTegic.value.IntegerValue
5

@<SCITEGIC>MOL_PROPERTY
Delta U+W
SciTegic.value.DoubleValue
2.167

@<SCITEGIC>MOL_PROPERTY
U+W
SciTegic.value.DoubleValue
-50.993

@<SCITEGIC>MOL_PROPERTY
Grad RMS
SciTegic.value.DoubleValue
0.000000

@<SCITEGIC>MOL_PROPERTY
U
SciTegic.value.DoubleValue
10.045

@<SCITEGIC>MOL_PROPERTY
W
SciTegic.value.DoubleValue
-61.037

@<SCITEGIC>MOL_PROPERTY
W(PB)
SciTegic.value.DoubleValue
-63.303

@<SCITEGIC>MOL_PROPERTY
W(SA)
SciTegic.value.DoubleValue
2.266

@<SCITEGIC>MOL_PROPERTY
Valence
SciTegic.value.DoubleValue
10.100

@<SCITEGIC>MOL_PROPERTY
Coulomb
SciTegic.value.DoubleValue
-0.883

@<SCITEGIC>MOL_PROPERTY
VdW
SciTegic.value.DoubleValue
0.828

@<SCITEGIC>MOL_PROPERTY
VdW6
SciTegic.value.DoubleValue
-8.177

@<SCITEGIC>MOL_PROPERTY
VdW12
SciTegic.value.DoubleValue
9.005

@<SCITEGIC>MOL_PROPERTY
Bond
SciTegic.value.DoubleValue
0.182

@<SCITEGIC>MOL_PROPERTY
Angle
SciTegic.value.DoubleValue
2.988

@<SCITEGIC>MOL_PROPERTY
Pdih
SciTegic.value.DoubleValue
6.930

@<SCITEGIC>MOL_PROPERTY
Idih
SciTegic.value.DoubleValue
0.001

@<SCITEGIC>MOL_PROPERTY
Tether
SciTegic.value.DoubleValue
0.000

@<TRIPOS>MOLECULE
guest-s21_confgen4.mol2 : confsearch ligand conformer 873
          22          21           1
SMALL
USER_CHARGES
 
@<TRIPOS>ATOM
       1    C1      17.707049   20.176694   24.557162 C.2        1 MOL1         0.6145
       2    O1      17.513173   19.361417   25.437108 O.co2      1 MOL1        -0.6735
       3    O2      17.124567   21.240752   24.485894 O.co2      1 MOL1        -0.6735
       4    C2      18.720112   19.836393   23.470009 C.3        1 MOL1        -0.1985
       5    H1      19.512772   19.237150   23.931886 H          1 MOL1         0.0740
       6    H2      19.173125   20.771972   23.121081 H          1 MOL1         0.0740
       7    C3      18.089183   19.069612   22.280422 C.3        1 MOL1        -0.1882
       8    H3      17.712117   18.100295   22.634681 H          1 MOL1         0.0742
       9    H4      17.212516   19.629411   21.926156 H          1 MOL1         0.0742
      10    C4      19.047213   18.848000   21.083034 C.3        1 MOL1        -0.1880
      11    H5      19.351690   19.814797   20.659300 H          1 MOL1         0.0742
      12    H6      18.476279   18.342449   20.292212 H          1 MOL1         0.0742
      13    C5      20.293887   17.985367   21.404560 C.3        1 MOL1        -0.1880
      14    H7      20.070590   17.290560   22.225745 H          1 MOL1         0.0742
      15    H8      20.520183   17.361048   20.529340 H          1 MOL1         0.0742
      16    C6      21.550722   18.823375   21.734509 C.3        1 MOL1        -0.1856
      17    H9      21.360430   19.486043   22.587166 H          1 MOL1         0.0742
      18    H10     21.794686   19.471266   20.881330 H          1 MOL1         0.0742
      19    C7      22.762090   17.924180   22.052896 C.3        1 MOL1        -0.2871
      20    H11     22.559186   17.286643   22.923376 H          1 MOL1         0.0754
      21    H12     23.647348   18.533089   22.277794 H          1 MOL1         0.0754
      22    H13     23.004551   17.275065   21.201312 H          1 MOL1         0.0754
@<TRIPOS>BOND
    1     1     2    1
    2     1     3    2
    3     1     4    1
    4     4     5    1
    5     4     6    1
    6     4     7    1
    7     7     8    1
    8     7     9    1
    9     7    10    1
   10    10    11    1
   11    10    12    1
   12    10    13    1
   13    13    14    1
   14    13    15    1
   15    13    16    1
   16    16    17    1
   17    16    18    1
   18    16    19    1
   19    19    20    1
   20    19    21    1
   21    19    22    1
@<TRIPOS>SUBSTRUCTURE
       1 MOL1            1 RESIDUE      1      MOL     
@<SCITEGIC>MOL_PROPERTY
VConf Rank
SciTegic.value.IntegerValue
873

@<SCITEGIC>MOL_PROPERTY
Conf_Id
SciTegic.value.IntegerValue
6

@<SCITEGIC>MOL_PROPERTY
Delta U+W
SciTegic.value.DoubleValue
2.118

@<SCITEGIC>MOL_PROPERTY
U+W
SciTegic.value.DoubleValue
-51.042

@<SCITEGIC>MOL_PROPERTY
Grad RMS
SciTegic.value.DoubleValue
0.000000

@<SCITEGIC>MOL_PROPERTY
U
SciTegic.value.DoubleValue
10.045

@<SCITEGIC>MOL_PROPERTY
W
SciTegic.value.DoubleValue
-61.086

@<SCITEGIC>MOL_PROPERTY
W(PB)
SciTegic.value.DoubleValue
-63.356

@<SCITEGIC>MOL_PROPERTY
W(SA)
SciTegic.value.DoubleValue
2.270

@<SCITEGIC>MOL_PROPERTY
Valence
SciTegic.value.DoubleValue
10.100

@<SCITEGIC>MOL_PROPERTY
Coulomb
SciTegic.value.DoubleValue
-0.883

@<SCITEGIC>MOL_PROPERTY
VdW
SciTegic.value.DoubleValue
0.828

@<SCITEGIC>MOL_PROPERTY
VdW6
SciTegic.value.DoubleValue
-8.177

@<SCITEGIC>MOL_PROPERTY
VdW12
SciTegic.value.DoubleValue
9.004

@<SCITEGIC>MOL_PROPERTY
Bond
SciTegic.value.DoubleValue
0.182

@<SCITEGIC>MOL_PROPERTY
Angle
SciTegic.value.DoubleValue
2.988

@<SCITEGIC>MOL_PROPERTY
Pdih
SciTegic.value.DoubleValue
6.930

@<SCITEGIC>MOL_PROPERTY
Idih
SciTegic.value.DoubleValue
0.001

@<SCITEGIC>MOL_PROPERTY
Tether
SciTegic.value.DoubleValue
0.000

@<TRIPOS>MOLECULE
guest-s21_confgen4.mol2 : confsearch ligand conformer 874
          22          21           1
SMALL
USER_CHARGES
 
@<TRIPOS>ATOM
       1    C1      17.029114   18.948582   21.893680 C.2        1 MOL1         0.6145
       2    O1      16.612462   17.834789   22.145394 O.co2      1 MOL1        -0.6735
       3    O2      17.193409   19.363026   20.763061 O.co2      1 MOL1        -0.6735
       4    C2      17.293695   19.903703   23.056089 C.3        1 MOL1        -0.1985
       5    H1      16.327140   20.067187   23.546576 H          1 MOL1         0.0740
       6    H2      17.610162   20.874270   22.655224 H          1 MOL1         0.0740
       7    C3      18.316943   19.397510   24.111463 C.3        1 MOL1        -0.1882
       8    H3      18.151665   19.959672   25.040484 H          1 MOL1         0.0742
       9    H4      18.114347   18.345295   24.355123 H          1 MOL1         0.0742
      10    C4      19.802985   19.573587   23.711979 C.3        1 MOL1        -0.1880
      11    H5      20.422910   19.330131   24.585705 H          1 MOL1         0.0742
      12    H6      20.000359   20.628620   23.477933 H          1 MOL1         0.0742
      13    C5      20.246287   18.686788   22.526407 C.3        1 MOL1        -0.1880
      14    H7      19.955879   17.644383   22.716409 H          1 MOL1         0.0742
      15    H8      19.730184   19.002472   21.610959 H          1 MOL1         0.0742
      16    C6      21.770043   18.764982   22.294028 C.3        1 MOL1        -0.1856
      17    H9      22.301000   18.442896   23.200505 H          1 MOL1         0.0742
      18    H10     22.062313   19.807329   22.105598 H          1 MOL1         0.0742
      19    C7      22.208854   17.886757   21.105086 C.3        1 MOL1        -0.2871
      20    H11     21.956174   16.832963   21.281264 H          1 MOL1         0.0754
      21    H12     23.293904   17.954727   20.953193 H          1 MOL1         0.0754
      22    H13     21.715654   18.206860   20.177837 H          1 MOL1         0.0754
@<TRIPOS>BOND
    1     1     2    1
    2     1     3    2
    3     1     4    1
    4     4     5    1
    5     4     6    1
    6     4     7    1
    7     7     8    1
    8     7     9    1
    9     7    10    1
   10    10    11    1
   11    10    12    1
   12    10    13    1
   13    13    14    1
   14    13    15    1
   15    13    16    1
   16    16    17    1
   17    16    18    1
   18    16    19    1
   19    19    20    1
   20    19    21    1
   21    19    22    1
@<TRIPOS>SUBSTRUCTURE
       1 MOL1            1 RESIDUE      1      MOL     
@<SCITEGIC>MOL_PROPERTY
VConf Rank
SciTegic.value.IntegerValue
874

@<SCITEGIC>MOL_PROPERTY
Conf_Id
SciTegic.value.IntegerValue
8

@<SCITEGIC>MOL_PROPERTY
Delta U+W
SciTegic.value.DoubleValue
1.886

@<SCITEGIC>MOL_PROPERTY
U+W
SciTegic.value.DoubleValue
-51.274

@<SCITEGIC>MOL_PROPERTY
Grad RMS
SciTegic.value.DoubleValue
0.000000

@<SCITEGIC>MOL_PROPERTY
U
SciTegic.value.DoubleValue
11.237

@<SCITEGIC>MOL_PROPERTY
W
SciTegic.value.DoubleValue
-62.510

@<SCITEGIC>MOL_PROPERTY
W(PB)
SciTegic.value.DoubleValue
-64.777

@<SCITEGIC>MOL_PROPERTY
W(SA)
SciTegic.value.DoubleValue
2.267

@<SCITEGIC>MOL_PROPERTY
Valence
SciTegic.value.DoubleValue
9.029

@<SCITEGIC>MOL_PROPERTY
Coulomb
SciTegic.value.DoubleValue
1.667

@<SCITEGIC>MOL_PROPERTY
VdW
SciTegic.value.DoubleValue
0.540

@<SCITEGIC>MOL_PROPERTY
VdW6
SciTegic.value.DoubleValue
-8.825

@<SCITEGIC>MOL_PROPERTY
VdW12
SciTegic.value.DoubleValue
9.365

@<SCITEGIC>MOL_PROPERTY
Bond
SciTegic.value.DoubleValue
0.186

@<SCITEGIC>MOL_PROPERTY
Angle
SciTegic.value.DoubleValue
3.195

@<SCITEGIC>MOL_PROPERTY
Pdih
SciTegic.value.DoubleValue
5.642

@<SCITEGIC>MOL_PROPERTY
Idih
SciTegic.value.DoubleValue
0.007

@<SCITEGIC>MOL_PROPERTY
Tether
SciTegic.value.DoubleValue
0.000

@<TRIPOS>MOLECULE
guest-s21_confgen4.mol2 : confsearch ligand conformer 875
          22          21           1
SMALL
USER_CHARGES
 
@<TRIPOS>ATOM
       1    C1      20.202430   18.983244   25.497239 C.2        1 MOL1         0.6145
       2    O1      19.342613   18.137479   25.646101 O.co2      1 MOL1        -0.6735
       3    O2      20.287916   19.982751   26.183524 O.co2      1 MOL1        -0.6735
       4    C2      21.250816   18.765983   24.409650 C.3        1 MOL1        -0.1985
       5    H1      21.207123   17.720921   24.083086 H          1 MOL1         0.0740
       6    H2      22.234352   18.903566   24.873815 H          1 MOL1         0.0740
       7    C3      21.117411   19.727592   23.196943 C.3        1 MOL1        -0.1882
       8    H3      21.245648   20.759472   23.552054 H          1 MOL1         0.0742
       9    H4      21.941413   19.539636   22.495499 H          1 MOL1         0.0742
      10    C4      19.770310   19.627161   22.439337 C.3        1 MOL1        -0.1880
      11    H5      19.754561   20.411213   21.671868 H          1 MOL1         0.0742
      12    H6      18.941394   19.848657   23.125457 H          1 MOL1         0.0742
      13    C5      19.538897   18.248511   21.773594 C.3        1 MOL1        -0.1880
      14    H7      20.375571   18.014466   21.101514 H          1 MOL1         0.0742
      15    H8      19.530093   17.469653   22.547051 H          1 MOL1         0.0742
      16    C6      18.206723   18.159296   20.992984 C.3        1 MOL1        -0.1856
      17    H9      17.369277   18.408171   21.659409 H          1 MOL1         0.0742
      18    H10     18.053305   17.117810   20.678430 H          1 MOL1         0.0742
      19    C7      18.164992   19.064722   19.742673 C.3        1 MOL1        -0.2871
      20    H11     18.192166   20.127104   20.014618 H          1 MOL1         0.0754
      21    H12     17.241633   18.891708   19.174895 H          1 MOL1         0.0754
      22    H13     19.013855   18.856712   19.078398 H          1 MOL1         0.0754
@<TRIPOS>BOND
    1     1     2    1
    2     1     3    2
    3     1     4    1
    4     4     5    1
    5     4     6    1
    6     4     7    1
    7     7     8    1
    8     7     9    1
    9     7    10    1
   10    10    11    1
   11    10    12    1
   12    10    13    1
   13    13    14    1
   14    13    15    1
   15    13    16    1
   16    16    17    1
   17    16    18    1
   18    16    19    1
   19    19    20    1
   20    19    21    1
   21    19    22    1
@<TRIPOS>SUBSTRUCTURE
       1 MOL1            1 RESIDUE      1      MOL     
@<SCITEGIC>MOL_PROPERTY
VConf Rank
SciTegic.value.IntegerValue
875

@<SCITEGIC>MOL_PROPERTY
Conf_Id
SciTegic.value.IntegerValue
93

@<SCITEGIC>MOL_PROPERTY
Delta U+W
SciTegic.value.DoubleValue
1.836

@<SCITEGIC>MOL_PROPERTY
U+W
SciTegic.value.DoubleValue
-51.323

@<SCITEGIC>MOL_PROPERTY
Grad RMS
SciTegic.value.DoubleValue
0.000000

@<SCITEGIC>MOL_PROPERTY
U
SciTegic.value.DoubleValue
10.427

@<SCITEGIC>MOL_PROPERTY
W
SciTegic.value.DoubleValue
-61.751

@<SCITEGIC>MOL_PROPERTY
W(PB)
SciTegic.value.DoubleValue
-63.980

@<SCITEGIC>MOL_PROPERTY
W(SA)
SciTegic.value.DoubleValue
2.230

@<SCITEGIC>MOL_PROPERTY
Valence
SciTegic.value.DoubleValue
8.446

@<SCITEGIC>MOL_PROPERTY
Coulomb
SciTegic.value.DoubleValue
1.306

@<SCITEGIC>MOL_PROPERTY
VdW
SciTegic.value.DoubleValue
0.676

@<SCITEGIC>MOL_PROPERTY
VdW6
SciTegic.value.DoubleValue
-8.928

@<SCITEGIC>MOL_PROPERTY
VdW12
SciTegic.value.DoubleValue
9.604

@<SCITEGIC>MOL_PROPERTY
Bond
SciTegic.value.DoubleValue
0.209

@<SCITEGIC>MOL_PROPERTY
Angle
SciTegic.value.DoubleValue
3.066

@<SCITEGIC>MOL_PROPERTY
Pdih
SciTegic.value.DoubleValue
5.170

@<SCITEGIC>MOL_PROPERTY
Idih
SciTegic.value.DoubleValue
0.001

@<SCITEGIC>MOL_PROPERTY
Tether
SciTegic.value.DoubleValue
0.000

@<TRIPOS>MOLECULE
guest-s21_confgen4.mol2 : confsearch ligand conformer 876
          22          21           1
SMALL
USER_CHARGES
 
@<TRIPOS>ATOM
       1    C1      20.138039   21.481891   24.391913 C.2        1 MOL1         0.6145
       2    O1      20.794000   21.442332   25.414389 O.co2      1 MOL1        -0.6735
       3    O2      18.943663   21.704744   24.368041 O.co2      1 MOL1        -0.6735
       4    C2      20.861388   21.269601   23.064939 C.3        1 MOL1        -0.1985
       5    H1      21.733086   21.934309   23.059670 H          1 MOL1         0.0740
       6    H2      20.210048   21.608325   22.251470 H          1 MOL1         0.0740
       7    C3      21.329688   19.808351   22.822876 C.3        1 MOL1        -0.1882
       8    H3      21.886959   19.760315   21.877638 H          1 MOL1         0.0742
       9    H4      22.041389   19.532841   23.613384 H          1 MOL1         0.0742
      10    C4      20.188553   18.761551   22.795460 C.3        1 MOL1        -0.1880
      11    H5      19.647369   18.777594   23.751382 H          1 MOL1         0.0742
      12    H6      20.644077   17.766593   22.714524 H          1 MOL1         0.0742
      13    C5      19.190197   18.968516   21.630172 C.3        1 MOL1        -0.1880
      14    H7      18.717878   19.954496   21.728629 H          1 MOL1         0.0742
      15    H8      19.730127   18.972861   20.673642 H          1 MOL1         0.0742
      16    C6      18.067893   17.905245   21.586796 C.3        1 MOL1        -0.1856
      17    H9      17.329794   18.204661   20.830003 H          1 MOL1         0.0742
      18    H10     17.536233   17.888101   22.548266 H          1 MOL1         0.0742
      19    C7      18.577084   16.487439   21.247150 C.3        1 MOL1        -0.2871
      20    H11     19.226052   16.093043   22.038757 H          1 MOL1         0.0754
      21    H12     19.142087   16.487858   20.305943 H          1 MOL1         0.0754
      22    H13     17.733577   15.794143   21.134296 H          1 MOL1         0.0754
@<TRIPOS>BOND
    1     1     2    1
    2     1     3    2
    3     1     4    1
    4     4     5    1
    5     4     6    1
    6     4     7    1
    7     7     8    1
    8     7     9    1
    9     7    10    1
   10    10    11    1
   11    10    12    1
   12    10    13    1
   13    13    14    1
   14    13    15    1
   15    13    16    1
   16    16    17    1
   17    16    18    1
   18    16    19    1
   19    19    20    1
   20    19    21    1
   21    19    22    1
@<TRIPOS>SUBSTRUCTURE
       1 MOL1            1 RESIDUE      1      MOL     
@<SCITEGIC>MOL_PROPERTY
VConf Rank
SciTegic.value.IntegerValue
876

@<SCITEGIC>MOL_PROPERTY
Conf_Id
SciTegic.value.IntegerValue
70

@<SCITEGIC>MOL_PROPERTY
Delta U+W
SciTegic.value.DoubleValue
1.803

@<SCITEGIC>MOL_PROPERTY
U+W
SciTegic.value.DoubleValue
-51.356

@<SCITEGIC>MOL_PROPERTY
Grad RMS
SciTegic.value.DoubleValue
0.000000

@<SCITEGIC>MOL_PROPERTY
U
SciTegic.value.DoubleValue
10.428

@<SCITEGIC>MOL_PROPERTY
W
SciTegic.value.DoubleValue
-61.784

@<SCITEGIC>MOL_PROPERTY
W(PB)
SciTegic.value.DoubleValue
-64.014

@<SCITEGIC>MOL_PROPERTY
W(SA)
SciTegic.value.DoubleValue
2.230

@<SCITEGIC>MOL_PROPERTY
Valence
SciTegic.value.DoubleValue
8.445

@<SCITEGIC>MOL_PROPERTY
Coulomb
SciTegic.value.DoubleValue
1.306

@<SCITEGIC>MOL_PROPERTY
VdW
SciTegic.value.DoubleValue
0.676

@<SCITEGIC>MOL_PROPERTY
VdW6
SciTegic.value.DoubleValue
-8.929

@<SCITEGIC>MOL_PROPERTY
VdW12
SciTegic.value.DoubleValue
9.605

@<SCITEGIC>MOL_PROPERTY
Bond
SciTegic.value.DoubleValue
0.209

@<SCITEGIC>MOL_PROPERTY
Angle
SciTegic.value.DoubleValue
3.066

@<SCITEGIC>MOL_PROPERTY
Pdih
SciTegic.value.DoubleValue
5.170

@<SCITEGIC>MOL_PROPERTY
Idih
SciTegic.value.DoubleValue
0.001

@<SCITEGIC>MOL_PROPERTY
Tether
SciTegic.value.DoubleValue
0.000

@<TRIPOS>MOLECULE
guest-s21_confgen4.mol2 : confsearch ligand conformer 877
          22          21           1
SMALL
USER_CHARGES
 
@<TRIPOS>ATOM
       1    C1      18.453561   16.531144   24.215595 C.2        1 MOL1         0.6145
       2    O1      18.746672   16.835836   25.354964 O.co2      1 MOL1        -0.6735
       3    O2      18.773975   15.479736   23.697179 O.co2      1 MOL1        -0.6735
       4    C2      17.619510   17.515226   23.400097 C.3        1 MOL1        -0.1985
       5    H1      16.809151   17.873067   24.046090 H          1 MOL1         0.0740
       6    H2      17.148572   16.972471   22.571559 H          1 MOL1         0.0740
       7    C3      18.424167   18.725855   22.859831 C.3        1 MOL1        -0.1882
       8    H3      17.727821   19.441745   22.402808 H          1 MOL1         0.0742
       9    H4      18.901141   19.240926   23.704123 H          1 MOL1         0.0742
      10    C4      19.488341   18.310772   21.815894 C.3        1 MOL1        -0.1880
      11    H5      19.002508   17.722162   21.025739 H          1 MOL1         0.0742
      12    H6      20.230546   17.648475   22.282582 H          1 MOL1         0.0742
      13    C5      20.209759   19.512193   21.160400 C.3        1 MOL1        -0.1880
      14    H7      20.851592   19.134171   20.352909 H          1 MOL1         0.0742
      15    H8      19.470319   20.171949   20.686252 H          1 MOL1         0.0742
      16    C6      21.074978   20.325037   22.149767 C.3        1 MOL1        -0.1856
      17    H9      21.779039   19.655435   22.662797 H          1 MOL1         0.0742
      18    H10     20.441001   20.777216   22.923697 H          1 MOL1         0.0742
      19    C7      21.860263   21.440064   21.430201 C.3        1 MOL1        -0.2871
      20    H11     22.535413   21.019962   20.673209 H          1 MOL1         0.0754
      21    H12     22.466830   22.009712   22.146188 H          1 MOL1         0.0754
      22    H13     21.178292   22.140644   20.930724 H          1 MOL1         0.0754
@<TRIPOS>BOND
    1     1     2    1
    2     1     3    2
    3     1     4    1
    4     4     5    1
    5     4     6    1
    6     4     7    1
    7     7     8    1
    8     7     9    1
    9     7    10    1
   10    10    11    1
   11    10    12    1
   12    10    13    1
   13    13    14    1
   14    13    15    1
   15    13    16    1
   16    16    17    1
   17    16    18    1
   18    16    19    1
   19    19    20    1
   20    19    21    1
   21    19    22    1
@<TRIPOS>SUBSTRUCTURE
       1 MOL1            1 RESIDUE      1      MOL     
@<SCITEGIC>MOL_PROPERTY
VConf Rank
SciTegic.value.IntegerValue
877

@<SCITEGIC>MOL_PROPERTY
Conf_Id
SciTegic.value.IntegerValue
85

@<SCITEGIC>MOL_PROPERTY
Delta U+W
SciTegic.value.DoubleValue
0.707

@<SCITEGIC>MOL_PROPERTY
U+W
SciTegic.value.DoubleValue
-52.452

@<SCITEGIC>MOL_PROPERTY
Grad RMS
SciTegic.value.DoubleValue
0.000000

@<SCITEGIC>MOL_PROPERTY
U
SciTegic.value.DoubleValue
8.925

@<SCITEGIC>MOL_PROPERTY
W
SciTegic.value.DoubleValue
-61.378

@<SCITEGIC>MOL_PROPERTY
W(PB)
SciTegic.value.DoubleValue
-63.661

@<SCITEGIC>MOL_PROPERTY
W(SA)
SciTegic.value.DoubleValue
2.283

@<SCITEGIC>MOL_PROPERTY
Valence
SciTegic.value.DoubleValue
7.881

@<SCITEGIC>MOL_PROPERTY
Coulomb
SciTegic.value.DoubleValue
0.349

@<SCITEGIC>MOL_PROPERTY
VdW
SciTegic.value.DoubleValue
0.695

@<SCITEGIC>MOL_PROPERTY
VdW6
SciTegic.value.DoubleValue
-8.049

@<SCITEGIC>MOL_PROPERTY
VdW12
SciTegic.value.DoubleValue
8.743

@<SCITEGIC>MOL_PROPERTY
Bond
SciTegic.value.DoubleValue
0.156

@<SCITEGIC>MOL_PROPERTY
Angle
SciTegic.value.DoubleValue
2.660

@<SCITEGIC>MOL_PROPERTY
Pdih
SciTegic.value.DoubleValue
5.064

@<SCITEGIC>MOL_PROPERTY
Idih
SciTegic.value.DoubleValue
0.001

@<SCITEGIC>MOL_PROPERTY
Tether
SciTegic.value.DoubleValue
0.000

@<TRIPOS>MOLECULE
guest-s21_confgen4.mol2 : confsearch ligand conformer 878
          22          21           1
SMALL
USER_CHARGES
 
@<TRIPOS>ATOM
       1    C1      22.142932   21.314087   22.356266 C.2        1 MOL1         0.6145
       2    O1      22.083383   21.995743   21.351906 O.co2      1 MOL1        -0.6735
       3    O2      22.219953   21.775400   23.477975 O.co2      1 MOL1        -0.6735
       4    C2      22.144607   19.795750   22.201197 C.3        1 MOL1        -0.1985
       5    H1      22.943880   19.403015   22.840659 H          1 MOL1         0.0740
       6    H2      22.414976   19.548822   21.167377 H          1 MOL1         0.0740
       7    C3      20.801003   19.119419   22.579339 C.3        1 MOL1        -0.1882
       8    H3      20.951448   18.032580   22.586740 H          1 MOL1         0.0742
       9    H4      20.518937   19.413014   23.599887 H          1 MOL1         0.0742
      10    C4      19.660388   19.470887   21.596208 C.3        1 MOL1        -0.1880
      11    H5      19.913833   19.097201   20.594796 H          1 MOL1         0.0742
      12    H6      19.585775   20.563180   21.505809 H          1 MOL1         0.0742
      13    C5      18.270934   18.926573   22.012938 C.3        1 MOL1        -0.1880
      14    H7      17.966056   19.367520   22.971866 H          1 MOL1         0.0742
      15    H8      17.541181   19.285739   21.274475 H          1 MOL1         0.0742
      16    C6      18.171146   17.381934   22.076481 C.3        1 MOL1        -0.1856
      17    H9      18.890760   16.924529   21.383555 H          1 MOL1         0.0742
      18    H10     17.174889   17.079760   21.725110 H          1 MOL1         0.0742
      19    C7      18.365683   16.817275   23.501383 C.3        1 MOL1        -0.2871
      20    H11     19.350619   17.069919   23.910010 H          1 MOL1         0.0754
      21    H12     18.275408   15.723362   23.496392 H          1 MOL1         0.0754
      22    H13     17.603929   17.213638   24.185278 H          1 MOL1         0.0754
@<TRIPOS>BOND
    1     1     2    1
    2     1     3    2
    3     1     4    1
    4     4     5    1
    5     4     6    1
    6     4     7    1
    7     7     8    1
    8     7     9    1
    9     7    10    1
   10    10    11    1
   11    10    12    1
   12    10    13    1
   13    13    14    1
   14    13    15    1
   15    13    16    1
   16    16    17    1
   17    16    18    1
   18    16    19    1
   19    19    20    1
   20    19    21    1
   21    19    22    1
@<TRIPOS>SUBSTRUCTURE
       1 MOL1            1 RESIDUE      1      MOL     
@<SCITEGIC>MOL_PROPERTY
VConf Rank
SciTegic.value.IntegerValue
878

@<SCITEGIC>MOL_PROPERTY
Conf_Id
SciTegic.value.IntegerValue
82

@<SCITEGIC>MOL_PROPERTY
Delta U+W
SciTegic.value.DoubleValue
3.438

@<SCITEGIC>MOL_PROPERTY
U+W
SciTegic.value.DoubleValue
-49.721

@<SCITEGIC>MOL_PROPERTY
Grad RMS
SciTegic.value.DoubleValue
0.000000

@<SCITEGIC>MOL_PROPERTY
U
SciTegic.value.DoubleValue
11.773

@<SCITEGIC>MOL_PROPERTY
W
SciTegic.value.DoubleValue
-61.495

@<SCITEGIC>MOL_PROPERTY
W(PB)
SciTegic.value.DoubleValue
-63.749

@<SCITEGIC>MOL_PROPERTY
W(SA)
SciTegic.value.DoubleValue
2.254

@<SCITEGIC>MOL_PROPERTY
Valence
SciTegic.value.DoubleValue
10.419

@<SCITEGIC>MOL_PROPERTY
Coulomb
SciTegic.value.DoubleValue
0.565

@<SCITEGIC>MOL_PROPERTY
VdW
SciTegic.value.DoubleValue
0.789

@<SCITEGIC>MOL_PROPERTY
VdW6
SciTegic.value.DoubleValue
-8.847

@<SCITEGIC>MOL_PROPERTY
VdW12
SciTegic.value.DoubleValue
9.636

@<SCITEGIC>MOL_PROPERTY
Bond
SciTegic.value.DoubleValue
0.200

@<SCITEGIC>MOL_PROPERTY
Angle
SciTegic.value.DoubleValue
3.187

@<SCITEGIC>MOL_PROPERTY
Pdih
SciTegic.value.DoubleValue
7.032

@<SCITEGIC>MOL_PROPERTY
Idih
SciTegic.value.DoubleValue
0.001

@<SCITEGIC>MOL_PROPERTY
Tether
SciTegic.value.DoubleValue
0.000

@<TRIPOS>MOLECULE
guest-s21_confgen4.mol2 : confsearch ligand conformer 879
          22          21           1
SMALL
USER_CHARGES
 
@<TRIPOS>ATOM
       1    C1      17.058225   17.221693   22.665335 C.2        1 MOL1         0.6145
       2    O1      17.159338   16.451180   23.599711 O.co2      1 MOL1        -0.6735
       3    O2      16.086005   17.926273   22.477467 O.co2      1 MOL1        -0.6735
       4    C2      18.205933   17.289684   21.661571 C.3        1 MOL1        -0.1985
       5    H1      17.834616   17.741922   20.733961 H          1 MOL1         0.0740
       6    H2      18.490310   16.258714   21.420277 H          1 MOL1         0.0740
       7    C3      19.449551   18.062373   22.173486 C.3        1 MOL1        -0.1882
       8    H3      19.782149   17.628547   23.126613 H          1 MOL1         0.0742
       9    H4      20.264926   17.920665   21.453078 H          1 MOL1         0.0742
      10    C4      19.179761   19.574798   22.349171 C.3        1 MOL1        -0.1880
      11    H5      18.292868   19.711853   22.982795 H          1 MOL1         0.0742
      12    H6      18.931281   20.016650   21.374633 H          1 MOL1         0.0742
      13    C5      20.352904   20.360467   22.987126 C.3        1 MOL1        -0.1880
      14    H7      20.023633   21.401122   23.111564 H          1 MOL1         0.0742
      15    H8      20.548800   19.986670   24.001437 H          1 MOL1         0.0742
      16    C6      21.659642   20.365208   22.155075 C.3        1 MOL1        -0.1856
      17    H9      22.139408   21.348060   22.260547 H          1 MOL1         0.0742
      18    H10     21.431650   20.250095   21.086440 H          1 MOL1         0.0742
      19    C7      22.672621   19.289347   22.606099 C.3        1 MOL1        -0.2871
      20    H11     22.962238   19.441343   23.654005 H          1 MOL1         0.0754
      21    H12     23.583453   19.339831   21.995644 H          1 MOL1         0.0754
      22    H13     22.262656   18.277387   22.512449 H          1 MOL1         0.0754
@<TRIPOS>BOND
    1     1     2    1
    2     1     3    2
    3     1     4    1
    4     4     5    1
    5     4     6    1
    6     4     7    1
    7     7     8    1
    8     7     9    1
    9     7    10    1
   10    10    11    1
   11    10    12    1
   12    10    13    1
   13    13    14    1
   14    13    15    1
   15    13    16    1
   16    16    17    1
   17    16    18    1
   18    16    19    1
   19    19    20    1
   20    19    21    1
   21    19    22    1
@<TRIPOS>SUBSTRUCTURE
       1 MOL1            1 RESIDUE      1      MOL     
@<SCITEGIC>MOL_PROPERTY
VConf Rank
SciTegic.value.IntegerValue
879

@<SCITEGIC>MOL_PROPERTY
Conf_Id
SciTegic.value.IntegerValue
94

@<SCITEGIC>MOL_PROPERTY
Delta U+W
SciTegic.value.DoubleValue
3.471

@<SCITEGIC>MOL_PROPERTY
U+W
SciTegic.value.DoubleValue
-49.688

@<SCITEGIC>MOL_PROPERTY
Grad RMS
SciTegic.value.DoubleValue
0.000000

@<SCITEGIC>MOL_PROPERTY
U
SciTegic.value.DoubleValue
11.773

@<SCITEGIC>MOL_PROPERTY
W
SciTegic.value.DoubleValue
-61.461

@<SCITEGIC>MOL_PROPERTY
W(PB)
SciTegic.value.DoubleValue
-63.710

@<SCITEGIC>MOL_PROPERTY
W(SA)
SciTegic.value.DoubleValue
2.248

@<SCITEGIC>MOL_PROPERTY
Valence
SciTegic.value.DoubleValue
10.419

@<SCITEGIC>MOL_PROPERTY
Coulomb
SciTegic.value.DoubleValue
0.566

@<SCITEGIC>MOL_PROPERTY
VdW
SciTegic.value.DoubleValue
0.789

@<SCITEGIC>MOL_PROPERTY
VdW6
SciTegic.value.DoubleValue
-8.847

@<SCITEGIC>MOL_PROPERTY
VdW12
SciTegic.value.DoubleValue
9.636

@<SCITEGIC>MOL_PROPERTY
Bond
SciTegic.value.DoubleValue
0.200

@<SCITEGIC>MOL_PROPERTY
Angle
SciTegic.value.DoubleValue
3.187

@<SCITEGIC>MOL_PROPERTY
Pdih
SciTegic.value.DoubleValue
7.032

@<SCITEGIC>MOL_PROPERTY
Idih
SciTegic.value.DoubleValue
0.001

@<SCITEGIC>MOL_PROPERTY
Tether
SciTegic.value.DoubleValue
0.000

@<TRIPOS>MOLECULE
guest-s21_confgen4.mol2 : confsearch ligand conformer 880
          22          21           1
SMALL
USER_CHARGES
 
@<TRIPOS>ATOM
       1    C1      17.963482   16.323762   22.359417 C.2        1 MOL1         0.6145
       2    O1      17.639395   15.556893   23.244617 O.co2      1 MOL1        -0.6735
       3    O2      18.090201   15.993930   21.196779 O.co2      1 MOL1        -0.6735
       4    C2      18.245145   17.774968   22.731709 C.3        1 MOL1        -0.1985
       5    H1      17.589640   18.046030   23.567814 H          1 MOL1         0.0740
       6    H2      17.959740   18.399960   21.877915 H          1 MOL1         0.0740
       7    C3      19.728001   18.019687   23.113421 C.3        1 MOL1        -0.1882
       8    H3      20.005893   17.321840   23.915221 H          1 MOL1         0.0742
       9    H4      20.372861   17.773271   22.259454 H          1 MOL1         0.0742
      10    C4      20.011844   19.464422   23.595696 C.3        1 MOL1        -0.1880
      11    H5      21.065725   19.538369   23.894596 H          1 MOL1         0.0742
      12    H6      19.430396   19.654059   24.508111 H          1 MOL1         0.0742
      13    C5      19.692700   20.579375   22.565068 C.3        1 MOL1        -0.1880
      14    H7      18.609611   20.612305   22.388756 H          1 MOL1         0.0742
      15    H8      19.950146   21.550422   23.009290 H          1 MOL1         0.0742
      16    C6      20.418769   20.445949   21.203837 C.3        1 MOL1        -0.1856
      17    H9      20.096364   21.269912   20.552647 H          1 MOL1         0.0742
      18    H10     20.109278   19.520997   20.699178 H          1 MOL1         0.0742
      19    C7      21.957352   20.482922   21.327119 C.3        1 MOL1        -0.2871
      20    H11     22.288156   21.393005   21.844102 H          1 MOL1         0.0754
      21    H12     22.422961   20.469533   20.333251 H          1 MOL1         0.0754
      22    H13     22.333502   19.614758   21.882779 H          1 MOL1         0.0754
@<TRIPOS>BOND
    1     1     2    1
    2     1     3    2
    3     1     4    1
    4     4     5    1
    5     4     6    1
    6     4     7    1
    7     7     8    1
    8     7     9    1
    9     7    10    1
   10    10    11    1
   11    10    12    1
   12    10    13    1
   13    13    14    1
   14    13    15    1
   15    13    16    1
   16    16    17    1
   17    16    18    1
   18    16    19    1
   19    19    20    1
   20    19    21    1
   21    19    22    1
@<TRIPOS>SUBSTRUCTURE
       1 MOL1            1 RESIDUE      1      MOL     
@<SCITEGIC>MOL_PROPERTY
VConf Rank
SciTegic.value.IntegerValue
880

@<SCITEGIC>MOL_PROPERTY
Conf_Id
SciTegic.value.IntegerValue
56

@<SCITEGIC>MOL_PROPERTY
Delta U+W
SciTegic.value.DoubleValue
0.853

@<SCITEGIC>MOL_PROPERTY
U+W
SciTegic.value.DoubleValue
-52.307

@<SCITEGIC>MOL_PROPERTY
Grad RMS
SciTegic.value.DoubleValue
0.000000

@<SCITEGIC>MOL_PROPERTY
U
SciTegic.value.DoubleValue
8.874

@<SCITEGIC>MOL_PROPERTY
W
SciTegic.value.DoubleValue
-61.181

@<SCITEGIC>MOL_PROPERTY
W(PB)
SciTegic.value.DoubleValue
-63.413

@<SCITEGIC>MOL_PROPERTY
W(SA)
SciTegic.value.DoubleValue
2.232

@<SCITEGIC>MOL_PROPERTY
Valence
SciTegic.value.DoubleValue
8.479

@<SCITEGIC>MOL_PROPERTY
Coulomb
SciTegic.value.DoubleValue
-0.357

@<SCITEGIC>MOL_PROPERTY
VdW
SciTegic.value.DoubleValue
0.753

@<SCITEGIC>MOL_PROPERTY
VdW6
SciTegic.value.DoubleValue
-9.081

@<SCITEGIC>MOL_PROPERTY
VdW12
SciTegic.value.DoubleValue
9.833

@<SCITEGIC>MOL_PROPERTY
Bond
SciTegic.value.DoubleValue
0.221

@<SCITEGIC>MOL_PROPERTY
Angle
SciTegic.value.DoubleValue
3.208

@<SCITEGIC>MOL_PROPERTY
Pdih
SciTegic.value.DoubleValue
5.050

@<SCITEGIC>MOL_PROPERTY
Idih
SciTegic.value.DoubleValue
0.000

@<SCITEGIC>MOL_PROPERTY
Tether
SciTegic.value.DoubleValue
0.000

@<TRIPOS>MOLECULE
guest-s21_confgen4.mol2 : confsearch ligand conformer 881
          22          21           1
SMALL
USER_CHARGES
 
@<TRIPOS>ATOM
       1    C1      19.736131   17.662801   26.000123 C.2        1 MOL1         0.6145
       2    O1      19.592960   16.499735   25.675809 O.co2      1 MOL1        -0.6735
       3    O2      19.798287   18.025863   27.157813 O.co2      1 MOL1        -0.6735
       4    C2      19.846024   18.743111   24.922914 C.3        1 MOL1        -0.1985
       5    H1      20.797724   19.264610   25.078722 H          1 MOL1         0.0740
       6    H2      19.047236   19.471082   25.107205 H          1 MOL1         0.0740
       7    C3      19.761868   18.231297   23.460255 C.3        1 MOL1        -0.1882
       8    H3      20.560941   17.497828   23.284203 H          1 MOL1         0.0742
       9    H4      18.808796   17.704651   23.312647 H          1 MOL1         0.0742
      10    C4      19.881457   19.384670   22.440480 C.3        1 MOL1        -0.1880
      11    H5      20.834966   19.909643   22.589995 H          1 MOL1         0.0742
      12    H6      19.081711   20.116676   22.618542 H          1 MOL1         0.0742
      13    C5      19.797399   18.873389   20.986234 C.3        1 MOL1        -0.1880
      14    H7      20.596945   18.141282   20.807703 H          1 MOL1         0.0742
      15    H8      18.844004   18.348354   20.836229 H          1 MOL1         0.0742
      16    C6      19.916899   20.025439   19.966625 C.3        1 MOL1        -0.1856
      17    H9      20.870440   20.551763   20.112293 H          1 MOL1         0.0742
      18    H10     19.117435   20.758902   20.140877 H          1 MOL1         0.0742
      19    C7      19.832419   19.510725   18.515670 C.3        1 MOL1        -0.2871
      20    H11     20.640392   18.798129   18.304023 H          1 MOL1         0.0754
      21    H12     19.919137   20.342440   17.804458 H          1 MOL1         0.0754
      22    H13     18.874236   19.006887   18.332803 H          1 MOL1         0.0754
@<TRIPOS>BOND
    1     1     2    1
    2     1     3    2
    3     1     4    1
    4     4     5    1
    5     4     6    1
    6     4     7    1
    7     7     8    1
    8     7     9    1
    9     7    10    1
   10    10    11    1
   11    10    12    1
   12    10    13    1
   13    13    14    1
   14    13    15    1
   15    13    16    1
   16    16    17    1
   17    16    18    1
   18    16    19    1
   19    19    20    1
   20    19    21    1
   21    19    22    1
@<TRIPOS>SUBSTRUCTURE
       1 MOL1            1 RESIDUE      1      MOL     
@<SCITEGIC>MOL_PROPERTY
VConf Rank
SciTegic.value.IntegerValue
881

@<SCITEGIC>MOL_PROPERTY
Conf_Id
SciTegic.value.IntegerValue
0

@<SCITEGIC>MOL_PROPERTY
Delta U+W
SciTegic.value.DoubleValue
0.000

@<SCITEGIC>MOL_PROPERTY
U+W
SciTegic.value.DoubleValue
-53.159

@<SCITEGIC>MOL_PROPERTY
Grad RMS
SciTegic.value.DoubleValue
0.000000

@<SCITEGIC>MOL_PROPERTY
U
SciTegic.value.DoubleValue
6.763

@<SCITEGIC>MOL_PROPERTY
W
SciTegic.value.DoubleValue
-59.922

@<SCITEGIC>MOL_PROPERTY
W(PB)
SciTegic.value.DoubleValue
-62.256

@<SCITEGIC>MOL_PROPERTY
W(SA)
SciTegic.value.DoubleValue
2.334

@<SCITEGIC>MOL_PROPERTY
Valence
SciTegic.value.DoubleValue
7.600

@<SCITEGIC>MOL_PROPERTY
Coulomb
SciTegic.value.DoubleValue
-2.139

@<SCITEGIC>MOL_PROPERTY
VdW
SciTegic.value.DoubleValue
1.302

@<SCITEGIC>MOL_PROPERTY
VdW6
SciTegic.value.DoubleValue
-6.786

@<SCITEGIC>MOL_PROPERTY
VdW12
SciTegic.value.DoubleValue
8.088

@<SCITEGIC>MOL_PROPERTY
Bond
SciTegic.value.DoubleValue
0.134

@<SCITEGIC>MOL_PROPERTY
Angle
SciTegic.value.DoubleValue
2.720

@<SCITEGIC>MOL_PROPERTY
Pdih
SciTegic.value.DoubleValue
4.746

@<SCITEGIC>MOL_PROPERTY
Idih
SciTegic.value.DoubleValue
0.000

@<SCITEGIC>MOL_PROPERTY
Tether
SciTegic.value.DoubleValue
0.000

@<TRIPOS>MOLECULE
guest-s21_confgen4.mol2 : confsearch ligand conformer 882
          22          21           1
SMALL
USER_CHARGES
 
@<TRIPOS>ATOM
       1    C1      19.791973   22.761560   20.796083 C.2        1 MOL1         0.6145
       2    O1      18.874825   23.442292   21.210662 O.co2      1 MOL1        -0.6735
       3    O2      20.283248   22.894046   19.692667 O.co2      1 MOL1        -0.6735
       4    C2      20.341911   21.665706   21.702110 C.3        1 MOL1        -0.1985
       5    H1      20.251075   22.005022   22.740992 H          1 MOL1         0.0740
       6    H2      21.412008   21.553426   21.490101 H          1 MOL1         0.0740
       7    C3      19.615264   20.310820   21.516860 C.3        1 MOL1        -0.1882
       8    H3      18.543442   20.443129   21.719997 H          1 MOL1         0.0742
       9    H4      19.704340   19.991546   20.469146 H          1 MOL1         0.0742
      10    C4      20.190066   19.218685   22.444612 C.3        1 MOL1        -0.1880
      11    H5      20.100601   19.541504   23.491014 H          1 MOL1         0.0742
      12    H6      21.261816   19.089833   22.239869 H          1 MOL1         0.0742
      13    C5      19.463824   17.869264   22.257717 C.3        1 MOL1        -0.1880
      14    H7      18.392026   17.997700   22.462361 H          1 MOL1         0.0742
      15    H8      19.553046   17.546100   21.211423 H          1 MOL1         0.0742
      16    C6      20.037734   16.777224   23.184617 C.3        1 MOL1        -0.1856
      17    H9      19.948422   17.096043   24.232402 H          1 MOL1         0.0742
      18    H10     21.109453   16.644448   22.981477 H          1 MOL1         0.0742
      19    C7      19.309871   15.431271   22.994966 C.3        1 MOL1        -0.2871
      20    H11     19.409938   15.072732   21.962084 H          1 MOL1         0.0754
      21    H12     18.240098   15.527792   23.222291 H          1 MOL1         0.0754
      22    H13     19.730297   14.666837   23.661281 H          1 MOL1         0.0754
@<TRIPOS>BOND
    1     1     2    1
    2     1     3    2
    3     1     4    1
    4     4     5    1
    5     4     6    1
    6     4     7    1
    7     7     8    1
    8     7     9    1
    9     7    10    1
   10    10    11    1
   11    10    12    1
   12    10    13    1
   13    13    14    1
   14    13    15    1
   15    13    16    1
   16    16    17    1
   17    16    18    1
   18    16    19    1
   19    19    20    1
   20    19    21    1
   21    19    22    1
@<TRIPOS>SUBSTRUCTURE
       1 MOL1            1 RESIDUE      1      MOL     
@<SCITEGIC>MOL_PROPERTY
VConf Rank
SciTegic.value.IntegerValue
882

@<SCITEGIC>MOL_PROPERTY
Conf_Id
SciTegic.value.IntegerValue
10

@<SCITEGIC>MOL_PROPERTY
Delta U+W
SciTegic.value.DoubleValue
-1.291

@<SCITEGIC>MOL_PROPERTY
U+W
SciTegic.value.DoubleValue
-54.451

@<SCITEGIC>MOL_PROPERTY
Grad RMS
SciTegic.value.DoubleValue
0.000000

@<SCITEGIC>MOL_PROPERTY
U
SciTegic.value.DoubleValue
5.779

@<SCITEGIC>MOL_PROPERTY
W
SciTegic.value.DoubleValue
-60.230

@<SCITEGIC>MOL_PROPERTY
W(PB)
SciTegic.value.DoubleValue
-62.557

@<SCITEGIC>MOL_PROPERTY
W(SA)
SciTegic.value.DoubleValue
2.328

@<SCITEGIC>MOL_PROPERTY
Valence
SciTegic.value.DoubleValue
7.101

@<SCITEGIC>MOL_PROPERTY
Coulomb
SciTegic.value.DoubleValue
-2.079

@<SCITEGIC>MOL_PROPERTY
VdW
SciTegic.value.DoubleValue
0.757

@<SCITEGIC>MOL_PROPERTY
VdW6
SciTegic.value.DoubleValue
-6.496

@<SCITEGIC>MOL_PROPERTY
VdW12
SciTegic.value.DoubleValue
7.253

@<SCITEGIC>MOL_PROPERTY
Bond
SciTegic.value.DoubleValue
0.100

@<SCITEGIC>MOL_PROPERTY
Angle
SciTegic.value.DoubleValue
2.262

@<SCITEGIC>MOL_PROPERTY
Pdih
SciTegic.value.DoubleValue
4.738

@<SCITEGIC>MOL_PROPERTY
Idih
SciTegic.value.DoubleValue
0.001

@<SCITEGIC>MOL_PROPERTY
Tether
SciTegic.value.DoubleValue
0.000

@<TRIPOS>MOLECULE
guest-s21_confgen4.mol2 : confsearch ligand conformer 883
          22          21           1
SMALL
USER_CHARGES
 
@<TRIPOS>ATOM
       1    C1      22.222521   15.830732   22.238429 C.2        1 MOL1         0.6145
       2    O1      23.136321   15.925564   21.443175 O.co2      1 MOL1        -0.6735
       3    O2      22.279560   15.164220   23.252808 O.co2      1 MOL1        -0.6735
       4    C2      20.941062   16.607778   21.958661 C.3        1 MOL1        -0.1985
       5    H1      20.098917   16.032963   22.362425 H          1 MOL1         0.0740
       6    H2      20.805512   16.661408   20.871735 H          1 MOL1         0.0740
       7    C3      20.956081   18.032098   22.566311 C.3        1 MOL1        -0.1882
       8    H3      21.105976   17.961237   23.652599 H          1 MOL1         0.0742
       9    H4      21.811814   18.590330   22.161774 H          1 MOL1         0.0742
      10    C4      19.648425   18.797681   22.269221 C.3        1 MOL1        -0.1880
      11    H5      18.795065   18.238452   22.676524 H          1 MOL1         0.0742
      12    H6      19.504919   18.856386   21.182425 H          1 MOL1         0.0742
      13    C5      19.669906   20.220070   22.874703 C.3        1 MOL1        -0.1880
      14    H7      19.884633   20.147718   23.949687 H          1 MOL1         0.0742
      15    H8      20.491869   20.798781   22.431526 H          1 MOL1         0.0742
      16    C6      18.339707   20.986839   22.690468 C.3        1 MOL1        -0.1856
      17    H9      18.398077   21.932487   23.246866 H          1 MOL1         0.0742
      18    H10     17.515956   20.413871   23.138186 H          1 MOL1         0.0742
      19    C7      18.013203   21.298568   21.213841 C.3        1 MOL1        -0.2871
      20    H11     17.109915   21.918240   21.143146 H          1 MOL1         0.0754
      21    H12     17.831440   20.380586   20.641151 H          1 MOL1         0.0754
      22    H13     18.836545   21.845638   20.736392 H          1 MOL1         0.0754
@<TRIPOS>BOND
    1     1     2    1
    2     1     3    2
    3     1     4    1
    4     4     5    1
    5     4     6    1
    6     4     7    1
    7     7     8    1
    8     7     9    1
    9     7    10    1
   10    10    11    1
   11    10    12    1
   12    10    13    1
   13    13    14    1
   14    13    15    1
   15    13    16    1
   16    16    17    1
   17    16    18    1
   18    16    19    1
   19    19    20    1
   20    19    21    1
   21    19    22    1
@<TRIPOS>SUBSTRUCTURE
       1 MOL1            1 RESIDUE      1      MOL     
@<SCITEGIC>MOL_PROPERTY
VConf Rank
SciTegic.value.IntegerValue
883

@<SCITEGIC>MOL_PROPERTY
Conf_Id
SciTegic.value.IntegerValue
37

@<SCITEGIC>MOL_PROPERTY
Delta U+W
SciTegic.value.DoubleValue
-0.345

@<SCITEGIC>MOL_PROPERTY
U+W
SciTegic.value.DoubleValue
-53.504

@<SCITEGIC>MOL_PROPERTY
Grad RMS
SciTegic.value.DoubleValue
0.000000

@<SCITEGIC>MOL_PROPERTY
U
SciTegic.value.DoubleValue
6.751

@<SCITEGIC>MOL_PROPERTY
W
SciTegic.value.DoubleValue
-60.255

@<SCITEGIC>MOL_PROPERTY
W(PB)
SciTegic.value.DoubleValue
-62.592

@<SCITEGIC>MOL_PROPERTY
W(SA)
SciTegic.value.DoubleValue
2.336

@<SCITEGIC>MOL_PROPERTY
Valence
SciTegic.value.DoubleValue
7.602

@<SCITEGIC>MOL_PROPERTY
Coulomb
SciTegic.value.DoubleValue
-1.744

@<SCITEGIC>MOL_PROPERTY
VdW
SciTegic.value.DoubleValue
0.894

@<SCITEGIC>MOL_PROPERTY
VdW6
SciTegic.value.DoubleValue
-7.110

@<SCITEGIC>MOL_PROPERTY
VdW12
SciTegic.value.DoubleValue
8.004

@<SCITEGIC>MOL_PROPERTY
Bond
SciTegic.value.DoubleValue
0.131

@<SCITEGIC>MOL_PROPERTY
Angle
SciTegic.value.DoubleValue
2.489

@<SCITEGIC>MOL_PROPERTY
Pdih
SciTegic.value.DoubleValue
4.982

@<SCITEGIC>MOL_PROPERTY
Idih
SciTegic.value.DoubleValue
0.001

@<SCITEGIC>MOL_PROPERTY
Tether
SciTegic.value.DoubleValue
0.000

@<TRIPOS>MOLECULE
guest-s21_confgen4.mol2 : confsearch ligand conformer 884
          22          21           1
SMALL
USER_CHARGES
 
@<TRIPOS>ATOM
       1    C1      21.968323   15.783750   22.475263 C.2        1 MOL1         0.6145
       2    O1      21.322999   14.767667   22.309175 O.co2      1 MOL1        -0.6735
       3    O2      22.988248   15.833153   23.133874 O.co2      1 MOL1        -0.6735
       4    C2      21.458369   17.072429   21.840074 C.3        1 MOL1        -0.1985
       5    H1      20.953169   16.813162   20.901879 H          1 MOL1         0.0740
       6    H2      22.325924   17.691150   21.580888 H          1 MOL1         0.0740
       7    C3      20.497486   17.859888   22.764610 C.3        1 MOL1        -0.1882
       8    H3      19.640787   17.222799   23.024868 H          1 MOL1         0.0742
       9    H4      21.014009   18.099733   23.704392 H          1 MOL1         0.0742
      10    C4      19.995708   19.159694   22.098973 C.3        1 MOL1        -0.1880
      11    H5      19.488134   18.909381   21.158293 H          1 MOL1         0.0742
      12    H6      20.853980   19.795444   21.841979 H          1 MOL1         0.0742
      13    C5      19.033918   19.940058   23.024315 C.3        1 MOL1        -0.1880
      14    H7      18.149686   19.325546   23.242135 H          1 MOL1         0.0742
      15    H8      19.531945   20.120770   23.986733 H          1 MOL1         0.0742
      16    C6      18.587020   21.300252   22.439965 C.3        1 MOL1        -0.1856
      17    H9      19.468717   21.920312   22.226786 H          1 MOL1         0.0742
      18    H10     18.006800   21.837863   23.202563 H          1 MOL1         0.0742
      19    C7      17.726617   21.164871   21.164979 C.3        1 MOL1        -0.2871
      20    H11     16.854076   20.523749   21.346002 H          1 MOL1         0.0754
      21    H12     18.303342   20.736151   20.335949 H          1 MOL1         0.0754
      22    H13     17.361971   22.148526   20.841906 H          1 MOL1         0.0754
@<TRIPOS>BOND
    1     1     2    1
    2     1     3    2
    3     1     4    1
    4     4     5    1
    5     4     6    1
    6     4     7    1
    7     7     8    1
    8     7     9    1
    9     7    10    1
   10    10    11    1
   11    10    12    1
   12    10    13    1
   13    13    14    1
   14    13    15    1
   15    13    16    1
   16    16    17    1
   17    16    18    1
   18    16    19    1
   19    19    20    1
   20    19    21    1
   21    19    22    1
@<TRIPOS>SUBSTRUCTURE
       1 MOL1            1 RESIDUE      1      MOL     
@<SCITEGIC>MOL_PROPERTY
VConf Rank
SciTegic.value.IntegerValue
884

@<SCITEGIC>MOL_PROPERTY
Conf_Id
SciTegic.value.IntegerValue
38

@<SCITEGIC>MOL_PROPERTY
Delta U+W
SciTegic.value.DoubleValue
-0.439

@<SCITEGIC>MOL_PROPERTY
U+W
SciTegic.value.DoubleValue
-53.598

@<SCITEGIC>MOL_PROPERTY
Grad RMS
SciTegic.value.DoubleValue
0.000000

@<SCITEGIC>MOL_PROPERTY
U
SciTegic.value.DoubleValue
6.751

@<SCITEGIC>MOL_PROPERTY
W
SciTegic.value.DoubleValue
-60.350

@<SCITEGIC>MOL_PROPERTY
W(PB)
SciTegic.value.DoubleValue
-62.659

@<SCITEGIC>MOL_PROPERTY
W(SA)
SciTegic.value.DoubleValue
2.309

@<SCITEGIC>MOL_PROPERTY
Valence
SciTegic.value.DoubleValue
7.602

@<SCITEGIC>MOL_PROPERTY
Coulomb
SciTegic.value.DoubleValue
-1.744

@<SCITEGIC>MOL_PROPERTY
VdW
SciTegic.value.DoubleValue
0.893

@<SCITEGIC>MOL_PROPERTY
VdW6
SciTegic.value.DoubleValue
-7.110

@<SCITEGIC>MOL_PROPERTY
VdW12
SciTegic.value.DoubleValue
8.004

@<SCITEGIC>MOL_PROPERTY
Bond
SciTegic.value.DoubleValue
0.131

@<SCITEGIC>MOL_PROPERTY
Angle
SciTegic.value.DoubleValue
2.489

@<SCITEGIC>MOL_PROPERTY
Pdih
SciTegic.value.DoubleValue
4.981

@<SCITEGIC>MOL_PROPERTY
Idih
SciTegic.value.DoubleValue
0.001

@<SCITEGIC>MOL_PROPERTY
Tether
SciTegic.value.DoubleValue
0.000

@<TRIPOS>MOLECULE
guest-s21_confgen4.mol2 : confsearch ligand conformer 885
          22          21           1
SMALL
USER_CHARGES
 
@<TRIPOS>ATOM
       1    C1      16.101636   18.916023   22.250067 C.2        1 MOL1         0.6145
       2    O1      15.450002   18.275725   23.051286 O.co2      1 MOL1        -0.6735
       3    O2      15.669249   19.291671   21.178404 O.co2      1 MOL1        -0.6735
       4    C2      17.548401   19.246710   22.599073 C.3        1 MOL1        -0.1985
       5    H1      17.617094   19.365242   23.687029 H          1 MOL1         0.0740
       6    H2      17.785025   20.217731   22.150088 H          1 MOL1         0.0740
       7    C3      18.544966   18.161218   22.115155 C.3        1 MOL1        -0.1882
       8    H3      18.219573   17.187031   22.505701 H          1 MOL1         0.0742
       9    H4      18.502782   18.085463   21.019813 H          1 MOL1         0.0742
      10    C4      20.003786   18.411982   22.566468 C.3        1 MOL1        -0.1880
      11    H5      20.597701   17.528098   22.301250 H          1 MOL1         0.0742
      12    H6      20.041091   18.495573   23.661132 H          1 MOL1         0.0742
      13    C5      20.638951   19.669778   21.924177 C.3        1 MOL1        -0.1880
      14    H7      20.599952   19.586845   20.829507 H          1 MOL1         0.0742
      15    H8      20.047778   20.554854   22.191077 H          1 MOL1         0.0742
      16    C6      22.098424   19.917509   22.372152 C.3        1 MOL1        -0.1856
      17    H9      22.143439   19.989605   23.467628 H          1 MOL1         0.0742
      18    H10     22.424329   20.892321   21.983858 H          1 MOL1         0.0742
      19    C7      23.084041   18.835013   21.880811 C.3        1 MOL1        -0.2871
      20    H11     22.872997   17.861252   22.339804 H          1 MOL1         0.0754
      21    H12     24.114624   19.107973   22.142169 H          1 MOL1         0.0754
      22    H13     23.031118   18.721219   20.790226 H          1 MOL1         0.0754
@<TRIPOS>BOND
    1     1     2    1
    2     1     3    2
    3     1     4    1
    4     4     5    1
    5     4     6    1
    6     4     7    1
    7     7     8    1
    8     7     9    1
    9     7    10    1
   10    10    11    1
   11    10    12    1
   12    10    13    1
   13    13    14    1
   14    13    15    1
   15    13    16    1
   16    16    17    1
   17    16    18    1
   18    16    19    1
   19    19    20    1
   20    19    21    1
   21    19    22    1
@<TRIPOS>SUBSTRUCTURE
       1 MOL1            1 RESIDUE      1      MOL     
@<SCITEGIC>MOL_PROPERTY
VConf Rank
SciTegic.value.IntegerValue
885

@<SCITEGIC>MOL_PROPERTY
Conf_Id
SciTegic.value.IntegerValue
60

@<SCITEGIC>MOL_PROPERTY
Delta U+W
SciTegic.value.DoubleValue
0.386

@<SCITEGIC>MOL_PROPERTY
U+W
SciTegic.value.DoubleValue
-52.773

@<SCITEGIC>MOL_PROPERTY
Grad RMS
SciTegic.value.DoubleValue
0.000000

@<SCITEGIC>MOL_PROPERTY
U
SciTegic.value.DoubleValue
7.689

@<SCITEGIC>MOL_PROPERTY
W
SciTegic.value.DoubleValue
-60.463

@<SCITEGIC>MOL_PROPERTY
W(PB)
SciTegic.value.DoubleValue
-62.772

@<SCITEGIC>MOL_PROPERTY
W(SA)
SciTegic.value.DoubleValue
2.309

@<SCITEGIC>MOL_PROPERTY
Valence
SciTegic.value.DoubleValue
8.197

@<SCITEGIC>MOL_PROPERTY
Coulomb
SciTegic.value.DoubleValue
-1.561

@<SCITEGIC>MOL_PROPERTY
VdW
SciTegic.value.DoubleValue
1.053

@<SCITEGIC>MOL_PROPERTY
VdW6
SciTegic.value.DoubleValue
-7.737

@<SCITEGIC>MOL_PROPERTY
VdW12
SciTegic.value.DoubleValue
8.790

@<SCITEGIC>MOL_PROPERTY
Bond
SciTegic.value.DoubleValue
0.181

@<SCITEGIC>MOL_PROPERTY
Angle
SciTegic.value.DoubleValue
2.780

@<SCITEGIC>MOL_PROPERTY
Pdih
SciTegic.value.DoubleValue
5.235

@<SCITEGIC>MOL_PROPERTY
Idih
SciTegic.value.DoubleValue
0.001

@<SCITEGIC>MOL_PROPERTY
Tether
SciTegic.value.DoubleValue
0.000

@<TRIPOS>MOLECULE
guest-s21_confgen4.mol2 : confsearch ligand conformer 886
          22          21           1
SMALL
USER_CHARGES
 
@<TRIPOS>ATOM
       1    C1      18.771535   22.548190   22.270961 C.2        1 MOL1         0.6145
       2    O1      17.800218   22.700467   21.556896 O.co2      1 MOL1        -0.6735
       3    O2      19.486590   23.459764   22.637417 O.co2      1 MOL1        -0.6735
       4    C2      19.125850   21.132804   22.713036 C.3        1 MOL1        -0.1985
       5    H1      18.189195   20.575883   22.826961 H          1 MOL1         0.0740
       6    H2      19.591981   21.192758   23.703765 H          1 MOL1         0.0740
       7    C3      20.074001   20.413728   21.718273 C.3        1 MOL1        -0.1882
       8    H3      19.577713   20.315655   20.742888 H          1 MOL1         0.0742
       9    H4      20.956587   21.047455   21.554328 H          1 MOL1         0.0742
      10    C4      20.547810   19.023756   22.206335 C.3        1 MOL1        -0.1880
      11    H5      21.036087   19.124243   23.185189 H          1 MOL1         0.0742
      12    H6      21.316257   18.663636   21.510541 H          1 MOL1         0.0742
      13    C5      19.406334   17.981169   22.296115 C.3        1 MOL1        -0.1880
      14    H7      18.638674   18.338562   22.994003 H          1 MOL1         0.0742
      15    H8      18.916915   17.882177   21.317660 H          1 MOL1         0.0742
      16    C6      19.881176   16.590892   22.779611 C.3        1 MOL1        -0.1856
      17    H9      18.999369   15.956885   22.946033 H          1 MOL1         0.0742
      18    H10     20.381645   16.687261   23.753027 H          1 MOL1         0.0742
      19    C7      20.819486   15.880276   21.779984 C.3        1 MOL1        -0.2871
      20    H11     20.352758   15.803575   20.789324 H          1 MOL1         0.0754
      21    H12     21.048051   14.863644   22.125144 H          1 MOL1         0.0754
      22    H13     21.771223   16.415100   21.672347 H          1 MOL1         0.0754
@<TRIPOS>BOND
    1     1     2    1
    2     1     3    2
    3     1     4    1
    4     4     5    1
    5     4     6    1
    6     4     7    1
    7     7     8    1
    8     7     9    1
    9     7    10    1
   10    10    11    1
   11    10    12    1
   12    10    13    1
   13    13    14    1
   14    13    15    1
   15    13    16    1
   16    16    17    1
   17    16    18    1
   18    16    19    1
   19    19    20    1
   20    19    21    1
   21    19    22    1
@<TRIPOS>SUBSTRUCTURE
       1 MOL1            1 RESIDUE      1      MOL     
@<SCITEGIC>MOL_PROPERTY
VConf Rank
SciTegic.value.IntegerValue
886

@<SCITEGIC>MOL_PROPERTY
Conf_Id
SciTegic.value.IntegerValue
28

@<SCITEGIC>MOL_PROPERTY
Delta U+W
SciTegic.value.DoubleValue
0.351

@<SCITEGIC>MOL_PROPERTY
U+W
SciTegic.value.DoubleValue
-52.808

@<SCITEGIC>MOL_PROPERTY
Grad RMS
SciTegic.value.DoubleValue
0.000000

@<SCITEGIC>MOL_PROPERTY
U
SciTegic.value.DoubleValue
7.689

@<SCITEGIC>MOL_PROPERTY
W
SciTegic.value.DoubleValue
-60.498

@<SCITEGIC>MOL_PROPERTY
W(PB)
SciTegic.value.DoubleValue
-62.768

@<SCITEGIC>MOL_PROPERTY
W(SA)
SciTegic.value.DoubleValue
2.270

@<SCITEGIC>MOL_PROPERTY
Valence
SciTegic.value.DoubleValue
8.197

@<SCITEGIC>MOL_PROPERTY
Coulomb
SciTegic.value.DoubleValue
-1.561

@<SCITEGIC>MOL_PROPERTY
VdW
SciTegic.value.DoubleValue
1.053

@<SCITEGIC>MOL_PROPERTY
VdW6
SciTegic.value.DoubleValue
-7.737

@<SCITEGIC>MOL_PROPERTY
VdW12
SciTegic.value.DoubleValue
8.791

@<SCITEGIC>MOL_PROPERTY
Bond
SciTegic.value.DoubleValue
0.181

@<SCITEGIC>MOL_PROPERTY
Angle
SciTegic.value.DoubleValue
2.780

@<SCITEGIC>MOL_PROPERTY
Pdih
SciTegic.value.DoubleValue
5.235

@<SCITEGIC>MOL_PROPERTY
Idih
SciTegic.value.DoubleValue
0.001

@<SCITEGIC>MOL_PROPERTY
Tether
SciTegic.value.DoubleValue
0.000

@<TRIPOS>MOLECULE
guest-s21_confgen4.mol2 : confsearch ligand conformer 887
          22          21           1
SMALL
USER_CHARGES
 
@<TRIPOS>ATOM
       1    C1      23.462263   17.761696   22.547645 C.2        1 MOL1         0.6145
       2    O1      23.731154   16.672570   22.080768 O.co2      1 MOL1        -0.6735
       3    O2      24.169656   18.741500   22.421011 O.co2      1 MOL1        -0.6735
       4    C2      22.155268   17.911980   23.318033 C.3        1 MOL1        -0.1985
       5    H1      22.305366   18.666055   24.100012 H          1 MOL1         0.0740
       6    H2      21.945190   16.960420   23.821042 H          1 MOL1         0.0740
       7    C3      20.965261   18.312452   22.411506 C.3        1 MOL1        -0.1882
       8    H3      21.207556   19.255734   21.904573 H          1 MOL1         0.0742
       9    H4      20.833724   17.552458   21.628939 H          1 MOL1         0.0742
      10    C4      19.654879   18.462446   23.218637 C.3        1 MOL1        -0.1880
      11    H5      19.769145   19.259052   23.966535 H          1 MOL1         0.0742
      12    H6      19.472155   17.534753   23.778064 H          1 MOL1         0.0742
      13    C5      18.417714   18.754013   22.336609 C.3        1 MOL1        -0.1880
      14    H7      18.300718   17.955533   21.591175 H          1 MOL1         0.0742
      15    H8      17.521830   18.719607   22.971538 H          1 MOL1         0.0742
      16    C6      18.476241   20.125281   21.626334 C.3        1 MOL1        -0.1856
      17    H9      19.321570   20.153241   20.926337 H          1 MOL1         0.0742
      18    H10     18.646082   20.919229   22.366610 H          1 MOL1         0.0742
      19    C7      17.174902   20.416925   20.852272 C.3        1 MOL1        -0.2871
      20    H11     16.310447   20.435089   21.528841 H          1 MOL1         0.0754
      21    H12     16.994529   19.651973   20.085657 H          1 MOL1         0.0754
      22    H13     17.233245   21.391883   20.351151 H          1 MOL1         0.0754
@<TRIPOS>BOND
    1     1     2    1
    2     1     3    2
    3     1     4    1
    4     4     5    1
    5     4     6    1
    6     4     7    1
    7     7     8    1
    8     7     9    1
    9     7    10    1
   10    10    11    1
   11    10    12    1
   12    10    13    1
   13    13    14    1
   14    13    15    1
   15    13    16    1
   16    16    17    1
   17    16    18    1
   18    16    19    1
   19    19    20    1
   20    19    21    1
   21    19    22    1
@<TRIPOS>SUBSTRUCTURE
       1 MOL1            1 RESIDUE      1      MOL     
@<SCITEGIC>MOL_PROPERTY
VConf Rank
SciTegic.value.IntegerValue
887

@<SCITEGIC>MOL_PROPERTY
Conf_Id
SciTegic.value.IntegerValue
50

@<SCITEGIC>MOL_PROPERTY
Delta U+W
SciTegic.value.DoubleValue
-0.486

@<SCITEGIC>MOL_PROPERTY
U+W
SciTegic.value.DoubleValue
-53.646

@<SCITEGIC>MOL_PROPERTY
Grad RMS
SciTegic.value.DoubleValue
0.000000

@<SCITEGIC>MOL_PROPERTY
U
SciTegic.value.DoubleValue
7.026

@<SCITEGIC>MOL_PROPERTY
W
SciTegic.value.DoubleValue
-60.672

@<SCITEGIC>MOL_PROPERTY
W(PB)
SciTegic.value.DoubleValue
-62.964

@<SCITEGIC>MOL_PROPERTY
W(SA)
SciTegic.value.DoubleValue
2.292

@<SCITEGIC>MOL_PROPERTY
Valence
SciTegic.value.DoubleValue
7.637

@<SCITEGIC>MOL_PROPERTY
Coulomb
SciTegic.value.DoubleValue
-1.488

@<SCITEGIC>MOL_PROPERTY
VdW
SciTegic.value.DoubleValue
0.877

@<SCITEGIC>MOL_PROPERTY
VdW6
SciTegic.value.DoubleValue
-7.165

@<SCITEGIC>MOL_PROPERTY
VdW12
SciTegic.value.DoubleValue
8.043

@<SCITEGIC>MOL_PROPERTY
Bond
SciTegic.value.DoubleValue
0.134

@<SCITEGIC>MOL_PROPERTY
Angle
SciTegic.value.DoubleValue
2.513

@<SCITEGIC>MOL_PROPERTY
Pdih
SciTegic.value.DoubleValue
4.990

@<SCITEGIC>MOL_PROPERTY
Idih
SciTegic.value.DoubleValue
0.001

@<SCITEGIC>MOL_PROPERTY
Tether
SciTegic.value.DoubleValue
0.000

@<TRIPOS>MOLECULE
guest-s21_confgen4.mol2 : confsearch ligand conformer 888
          22          21           1
SMALL
USER_CHARGES
 
@<TRIPOS>ATOM
       1    C1      19.609180   18.530117   25.961853 C.2        1 MOL1         0.6145
       2    O1      20.342008   17.681803   26.430679 O.co2      1 MOL1        -0.6735
       3    O2      18.456829   18.691971   26.311632 O.co2      1 MOL1        -0.6735
       4    C2      20.159797   19.427668   24.859332 C.3        1 MOL1        -0.1985
       5    H1      21.230356   19.576720   25.044543 H          1 MOL1         0.0740
       6    H2      19.676202   20.408217   24.944818 H          1 MOL1         0.0740
       7    C3      19.937819   18.844634   23.441907 C.3        1 MOL1        -0.1882
       8    H3      20.419980   17.859545   23.375389 H          1 MOL1         0.0742
       9    H4      18.862321   18.685970   23.288285 H          1 MOL1         0.0742
      10    C4      20.501274   19.776479   22.344068 C.3        1 MOL1        -0.1880
      11    H5      21.558424   19.983536   22.559761 H          1 MOL1         0.0742
      12    H6      19.982076   20.744137   22.376626 H          1 MOL1         0.0742
      13    C5      20.399617   19.182095   20.919310 C.3        1 MOL1        -0.1880
      14    H7      20.931878   19.847541   20.225909 H          1 MOL1         0.0742
      15    H8      20.922087   18.216280   20.885281 H          1 MOL1         0.0742
      16    C6      18.945321   19.005287   20.427322 C.3        1 MOL1        -0.1856
      17    H9      18.407107   19.959506   20.510971 H          1 MOL1         0.0742
      18    H10     18.416383   18.282005   21.061709 H          1 MOL1         0.0742
      19    C7      18.898569   18.517618   18.965230 C.3        1 MOL1        -0.2871
      20    H11     19.406620   17.550287   18.857811 H          1 MOL1         0.0754
      21    H12     19.386016   19.237446   18.294707 H          1 MOL1         0.0754
      22    H13     17.860003   18.393897   18.631850 H          1 MOL1         0.0754
@<TRIPOS>BOND
    1     1     2    1
    2     1     3    2
    3     1     4    1
    4     4     5    1
    5     4     6    1
    6     4     7    1
    7     7     8    1
    8     7     9    1
    9     7    10    1
   10    10    11    1
   11    10    12    1
   12    10    13    1
   13    13    14    1
   14    13    15    1
   15    13    16    1
   16    16    17    1
   17    16    18    1
   18    16    19    1
   19    19    20    1
   20    19    21    1
   21    19    22    1
@<TRIPOS>SUBSTRUCTURE
       1 MOL1            1 RESIDUE      1      MOL     
@<SCITEGIC>MOL_PROPERTY
VConf Rank
SciTegic.value.IntegerValue
888

@<SCITEGIC>MOL_PROPERTY
Conf_Id
SciTegic.value.IntegerValue
51

@<SCITEGIC>MOL_PROPERTY
Delta U+W
SciTegic.value.DoubleValue
-0.517

@<SCITEGIC>MOL_PROPERTY
U+W
SciTegic.value.DoubleValue
-53.677

@<SCITEGIC>MOL_PROPERTY
Grad RMS
SciTegic.value.DoubleValue
0.000000

@<SCITEGIC>MOL_PROPERTY
U
SciTegic.value.DoubleValue
7.026

@<SCITEGIC>MOL_PROPERTY
W
SciTegic.value.DoubleValue
-60.703

@<SCITEGIC>MOL_PROPERTY
W(PB)
SciTegic.value.DoubleValue
-63.007

@<SCITEGIC>MOL_PROPERTY
W(SA)
SciTegic.value.DoubleValue
2.304

@<SCITEGIC>MOL_PROPERTY
Valence
SciTegic.value.DoubleValue
7.638

@<SCITEGIC>MOL_PROPERTY
Coulomb
SciTegic.value.DoubleValue
-1.488

@<SCITEGIC>MOL_PROPERTY
VdW
SciTegic.value.DoubleValue
0.877

@<SCITEGIC>MOL_PROPERTY
VdW6
SciTegic.value.DoubleValue
-7.165

@<SCITEGIC>MOL_PROPERTY
VdW12
SciTegic.value.DoubleValue
8.042

@<SCITEGIC>MOL_PROPERTY
Bond
SciTegic.value.DoubleValue
0.134

@<SCITEGIC>MOL_PROPERTY
Angle
SciTegic.value.DoubleValue
2.513

@<SCITEGIC>MOL_PROPERTY
Pdih
SciTegic.value.DoubleValue
4.990

@<SCITEGIC>MOL_PROPERTY
Idih
SciTegic.value.DoubleValue
0.001

@<SCITEGIC>MOL_PROPERTY
Tether
SciTegic.value.DoubleValue
0.000

@<TRIPOS>MOLECULE
guest-s21_confgen4.mol2 : confsearch ligand conformer 889
          22          21           1
SMALL
USER_CHARGES
 
@<TRIPOS>ATOM
       1    C1      23.041331   18.319877   20.828207 C.2        1 MOL1         0.6145
       2    O1      23.969515   18.833892   21.420797 O.co2      1 MOL1        -0.6735
       3    O2      22.939070   17.122403   20.648237 O.co2      1 MOL1        -0.6735
       4    C2      21.955542   19.231693   20.263592 C.3        1 MOL1        -0.1985
       5    H1      21.403431   18.682283   19.491434 H          1 MOL1         0.0740
       6    H2      22.457384   20.067015   19.761163 H          1 MOL1         0.0740
       7    C3      20.976224   19.783000   21.332230 C.3        1 MOL1        -0.1882
       8    H3      21.546129   20.306026   22.112810 H          1 MOL1         0.0742
       9    H4      20.321784   20.530661   20.863984 H          1 MOL1         0.0742
      10    C4      20.108688   18.675321   21.970990 C.3        1 MOL1        -0.1880
      11    H5      20.756069   17.932021   22.456593 H          1 MOL1         0.0742
      12    H6      19.551202   18.147054   21.185395 H          1 MOL1         0.0742
      13    C5      19.120131   19.250137   23.008193 C.3        1 MOL1        -0.1880
      14    H7      19.678367   19.778205   23.793448 H          1 MOL1         0.0742
      15    H8      18.469680   19.991657   22.524334 H          1 MOL1         0.0742
      16    C6      18.253948   18.144433   23.647093 C.3        1 MOL1        -0.1856
      17    H9      18.901251   17.401659   24.133701 H          1 MOL1         0.0742
      18    H10     17.692695   17.615015   22.864677 H          1 MOL1         0.0742
      19    C7      17.268495   18.722101   24.682727 C.3        1 MOL1        -0.2871
      20    H11     17.805110   19.230640   25.494412 H          1 MOL1         0.0754
      21    H12     16.661154   17.922658   25.126701 H          1 MOL1         0.0754
      22    H13     16.587433   19.445675   24.215833 H          1 MOL1         0.0754
@<TRIPOS>BOND
    1     1     2    1
    2     1     3    2
    3     1     4    1
    4     4     5    1
    5     4     6    1
    6     4     7    1
    7     7     8    1
    8     7     9    1
    9     7    10    1
   10    10    11    1
   11    10    12    1
   12    10    13    1
   13    13    14    1
   14    13    15    1
   15    13    16    1
   16    16    17    1
   17    16    18    1
   18    16    19    1
   19    19    20    1
   20    19    21    1
   21    19    22    1
@<TRIPOS>SUBSTRUCTURE
       1 MOL1            1 RESIDUE      1      MOL     
@<SCITEGIC>MOL_PROPERTY
VConf Rank
SciTegic.value.IntegerValue
889

@<SCITEGIC>MOL_PROPERTY
Conf_Id
SciTegic.value.IntegerValue
43

@<SCITEGIC>MOL_PROPERTY
Delta U+W
SciTegic.value.DoubleValue
-0.129

@<SCITEGIC>MOL_PROPERTY
U+W
SciTegic.value.DoubleValue
-53.289

@<SCITEGIC>MOL_PROPERTY
Grad RMS
SciTegic.value.DoubleValue
0.000000

@<SCITEGIC>MOL_PROPERTY
U
SciTegic.value.DoubleValue
7.937

@<SCITEGIC>MOL_PROPERTY
W
SciTegic.value.DoubleValue
-61.225

@<SCITEGIC>MOL_PROPERTY
W(PB)
SciTegic.value.DoubleValue
-63.523

@<SCITEGIC>MOL_PROPERTY
W(SA)
SciTegic.value.DoubleValue
2.297

@<SCITEGIC>MOL_PROPERTY
Valence
SciTegic.value.DoubleValue
7.358

@<SCITEGIC>MOL_PROPERTY
Coulomb
SciTegic.value.DoubleValue
-0.022

@<SCITEGIC>MOL_PROPERTY
VdW
SciTegic.value.DoubleValue
0.601

@<SCITEGIC>MOL_PROPERTY
VdW6
SciTegic.value.DoubleValue
-7.363

@<SCITEGIC>MOL_PROPERTY
VdW12
SciTegic.value.DoubleValue
7.964

@<SCITEGIC>MOL_PROPERTY
Bond
SciTegic.value.DoubleValue
0.121

@<SCITEGIC>MOL_PROPERTY
Angle
SciTegic.value.DoubleValue
2.425

@<SCITEGIC>MOL_PROPERTY
Pdih
SciTegic.value.DoubleValue
4.811

@<SCITEGIC>MOL_PROPERTY
Idih
SciTegic.value.DoubleValue
0.000

@<SCITEGIC>MOL_PROPERTY
Tether
SciTegic.value.DoubleValue
0.000

@<TRIPOS>MOLECULE
guest-s21_confgen4.mol2 : confsearch ligand conformer 890
          22          21           1
SMALL
USER_CHARGES
 
@<TRIPOS>ATOM
       1    C1      17.181899   18.448106   20.043618 C.2        1 MOL1         0.6145
       2    O1      17.008842   19.364082   19.263911 O.co2      1 MOL1        -0.6735
       3    O2      16.330010   18.050703   20.813779 O.co2      1 MOL1        -0.6735
       4    C2      18.538041   17.748103   20.040849 C.3        1 MOL1        -0.1985
       5    H1      18.808329   17.560977   18.994919 H          1 MOL1         0.0740
       6    H2      18.427203   16.767940   20.520326 H          1 MOL1         0.0740
       7    C3      19.666945   18.557184   20.730749 C.3        1 MOL1        -0.1882
       8    H3      20.625179   18.047582   20.561527 H          1 MOL1         0.0742
       9    H4      19.746865   19.546129   20.258252 H          1 MOL1         0.0742
      10    C4      19.437991   18.720051   22.250171 C.3        1 MOL1        -0.1880
      11    H5      19.345693   17.729174   22.715636 H          1 MOL1         0.0742
      12    H6      18.488858   19.244623   22.427309 H          1 MOL1         0.0742
      13    C5      20.588477   19.500732   22.921273 C.3        1 MOL1        -0.1880
      14    H7      21.538385   18.976612   22.747978 H          1 MOL1         0.0742
      15    H8      20.680102   20.491483   22.455303 H          1 MOL1         0.0742
      16    C6      20.360150   19.664448   24.438545 C.3        1 MOL1        -0.1856
      17    H9      20.269653   18.675260   24.908417 H          1 MOL1         0.0742
      18    H10     19.411539   20.190033   24.615746 H          1 MOL1         0.0742
      19    C7      21.510668   20.445021   25.105158 C.3        1 MOL1        -0.2871
      20    H11     22.468091   19.924881   24.970278 H          1 MOL1         0.0754
      21    H12     21.332006   20.552053   26.182984 H          1 MOL1         0.0754
      22    H13     21.603460   21.451058   24.675415 H          1 MOL1         0.0754
@<TRIPOS>BOND
    1     1     2    1
    2     1     3    2
    3     1     4    1
    4     4     5    1
    5     4     6    1
    6     4     7    1
    7     7     8    1
    8     7     9    1
    9     7    10    1
   10    10    11    1
   11    10    12    1
   12    10    13    1
   13    13    14    1
   14    13    15    1
   15    13    16    1
   16    16    17    1
   17    16    18    1
   18    16    19    1
   19    19    20    1
   20    19    21    1
   21    19    22    1
@<TRIPOS>SUBSTRUCTURE
       1 MOL1            1 RESIDUE      1      MOL     
@<SCITEGIC>MOL_PROPERTY
VConf Rank
SciTegic.value.IntegerValue
890

@<SCITEGIC>MOL_PROPERTY
Conf_Id
SciTegic.value.IntegerValue
44

@<SCITEGIC>MOL_PROPERTY
Delta U+W
SciTegic.value.DoubleValue
-0.155

@<SCITEGIC>MOL_PROPERTY
U+W
SciTegic.value.DoubleValue
-53.314

@<SCITEGIC>MOL_PROPERTY
Grad RMS
SciTegic.value.DoubleValue
0.000000

@<SCITEGIC>MOL_PROPERTY
U
SciTegic.value.DoubleValue
7.937

@<SCITEGIC>MOL_PROPERTY
W
SciTegic.value.DoubleValue
-61.252

@<SCITEGIC>MOL_PROPERTY
W(PB)
SciTegic.value.DoubleValue
-63.556

@<SCITEGIC>MOL_PROPERTY
W(SA)
SciTegic.value.DoubleValue
2.304

@<SCITEGIC>MOL_PROPERTY
Valence
SciTegic.value.DoubleValue
7.358

@<SCITEGIC>MOL_PROPERTY
Coulomb
SciTegic.value.DoubleValue
-0.021

@<SCITEGIC>MOL_PROPERTY
VdW
SciTegic.value.DoubleValue
0.600

@<SCITEGIC>MOL_PROPERTY
VdW6
SciTegic.value.DoubleValue
-7.363

@<SCITEGIC>MOL_PROPERTY
VdW12
SciTegic.value.DoubleValue
7.964

@<SCITEGIC>MOL_PROPERTY
Bond
SciTegic.value.DoubleValue
0.121

@<SCITEGIC>MOL_PROPERTY
Angle
SciTegic.value.DoubleValue
2.425

@<SCITEGIC>MOL_PROPERTY
Pdih
SciTegic.value.DoubleValue
4.811

@<SCITEGIC>MOL_PROPERTY
Idih
SciTegic.value.DoubleValue
0.001

@<SCITEGIC>MOL_PROPERTY
Tether
SciTegic.value.DoubleValue
0.000

@<TRIPOS>MOLECULE
guest-s21_confgen4.mol2 : confsearch ligand conformer 891
          22          21           1
SMALL
USER_CHARGES
 
@<TRIPOS>ATOM
       1    C1      18.661086   22.385050   22.518960 C.2        1 MOL1         0.6145
       2    O1      17.453156   22.470242   22.416146 O.co2      1 MOL1        -0.6735
       3    O2      19.439798   23.059353   21.874141 O.co2      1 MOL1        -0.6735
       4    C2      19.228648   21.389845   23.527300 C.3        1 MOL1        -0.1985
       5    H1      18.664412   21.511179   24.459473 H          1 MOL1         0.0740
       6    H2      20.267054   21.666458   23.746591 H          1 MOL1         0.0740
       7    C3      19.154615   19.910676   23.066646 C.3        1 MOL1        -0.1882
       8    H3      19.437845   19.269415   23.910881 H          1 MOL1         0.0742
       9    H4      18.115341   19.660463   22.812274 H          1 MOL1         0.0742
      10    C4      20.075716   19.618421   21.857774 C.3        1 MOL1        -0.1880
      11    H5      21.119566   19.829082   22.127589 H          1 MOL1         0.0742
      12    H6      19.823762   20.305457   21.038329 H          1 MOL1         0.0742
      13    C5      19.958938   18.168833   21.329680 C.3        1 MOL1        -0.1880
      14    H7      18.914874   17.958541   21.060190 H          1 MOL1         0.0742
      15    H8      20.541000   18.089491   20.401342 H          1 MOL1         0.0742
      16    C6      20.463951   17.104288   22.329746 C.3        1 MOL1        -0.1856
      17    H9      19.843607   17.110944   23.235474 H          1 MOL1         0.0742
      18    H10     21.489655   17.345371   22.641198 H          1 MOL1         0.0742
      19    C7      20.434953   15.691111   21.713443 C.3        1 MOL1        -0.2871
      20    H11     19.414963   15.413049   21.417328 H          1 MOL1         0.0754
      21    H12     20.792969   14.946537   22.436282 H          1 MOL1         0.0754
      22    H13     21.077149   15.636346   20.824656 H          1 MOL1         0.0754
@<TRIPOS>BOND
    1     1     2    1
    2     1     3    2
    3     1     4    1
    4     4     5    1
    5     4     6    1
    6     4     7    1
    7     7     8    1
    8     7     9    1
    9     7    10    1
   10    10    11    1
   11    10    12    1
   12    10    13    1
   13    13    14    1
   14    13    15    1
   15    13    16    1
   16    16    17    1
   17    16    18    1
   18    16    19    1
   19    19    20    1
   20    19    21    1
   21    19    22    1
@<TRIPOS>SUBSTRUCTURE
       1 MOL1            1 RESIDUE      1      MOL     
@<SCITEGIC>MOL_PROPERTY
VConf Rank
SciTegic.value.IntegerValue
891

@<SCITEGIC>MOL_PROPERTY
Conf_Id
SciTegic.value.IntegerValue
53

@<SCITEGIC>MOL_PROPERTY
Delta U+W
SciTegic.value.DoubleValue
0.723

@<SCITEGIC>MOL_PROPERTY
U+W
SciTegic.value.DoubleValue
-52.436

@<SCITEGIC>MOL_PROPERTY
Grad RMS
SciTegic.value.DoubleValue
0.000000

@<SCITEGIC>MOL_PROPERTY
U
SciTegic.value.DoubleValue
8.587

@<SCITEGIC>MOL_PROPERTY
W
SciTegic.value.DoubleValue
-61.022

@<SCITEGIC>MOL_PROPERTY
W(PB)
SciTegic.value.DoubleValue
-63.285

@<SCITEGIC>MOL_PROPERTY
W(SA)
SciTegic.value.DoubleValue
2.263

@<SCITEGIC>MOL_PROPERTY
Valence
SciTegic.value.DoubleValue
7.933

@<SCITEGIC>MOL_PROPERTY
Coulomb
SciTegic.value.DoubleValue
-0.124

@<SCITEGIC>MOL_PROPERTY
VdW
SciTegic.value.DoubleValue
0.778

@<SCITEGIC>MOL_PROPERTY
VdW6
SciTegic.value.DoubleValue
-7.981

@<SCITEGIC>MOL_PROPERTY
VdW12
SciTegic.value.DoubleValue
8.759

@<SCITEGIC>MOL_PROPERTY
Bond
SciTegic.value.DoubleValue
0.160

@<SCITEGIC>MOL_PROPERTY
Angle
SciTegic.value.DoubleValue
2.698

@<SCITEGIC>MOL_PROPERTY
Pdih
SciTegic.value.DoubleValue
5.074

@<SCITEGIC>MOL_PROPERTY
Idih
SciTegic.value.DoubleValue
0.001

@<SCITEGIC>MOL_PROPERTY
Tether
SciTegic.value.DoubleValue
0.000

@<TRIPOS>MOLECULE
guest-s21_confgen4.mol2 : confsearch ligand conformer 892
          22          21           1
SMALL
USER_CHARGES
 
@<TRIPOS>ATOM
       1    C1      16.540173   19.187027   23.227065 C.2        1 MOL1         0.6145
       2    O1      16.469082   19.502395   24.398414 O.co2      1 MOL1        -0.6735
       3    O2      15.570947   19.054161   22.506281 O.co2      1 MOL1        -0.6735
       4    C2      17.922332   18.967604   22.622507 C.3        1 MOL1        -0.1985
       5    H1      17.832944   18.212938   21.832082 H          1 MOL1         0.0740
       6    H2      18.564391   18.550904   23.406631 H          1 MOL1         0.0740
       7    C3      18.542252   20.268982   22.053958 C.3        1 MOL1        -0.1882
       8    H3      17.817015   20.736125   21.373348 H          1 MOL1         0.0742
       9    H4      18.698004   20.983251   22.874213 H          1 MOL1         0.0742
      10    C4      19.872303   20.060922   21.286924 C.3        1 MOL1        -0.1880
      11    H5      20.183965   21.038643   20.894654 H          1 MOL1         0.0742
      12    H6      19.704742   19.425994   20.406160 H          1 MOL1         0.0742
      13    C5      21.031122   19.494071   22.145716 C.3        1 MOL1        -0.1880
      14    H7      21.969217   19.961516   21.816376 H          1 MOL1         0.0742
      15    H8      20.898379   19.783599   23.197151 H          1 MOL1         0.0742
      16    C6      21.190393   17.960831   22.025038 C.3        1 MOL1        -0.1856
      17    H9      21.379626   17.692521   20.976517 H          1 MOL1         0.0742
      18    H10     20.263915   17.451951   22.316662 H          1 MOL1         0.0742
      19    C7      22.349452   17.442353   22.899735 C.3        1 MOL1        -0.2871
      20    H11     23.301178   17.903592   22.605102 H          1 MOL1         0.0754
      21    H12     22.454199   16.354374   22.797931 H          1 MOL1         0.0754
      22    H13     22.172357   17.668112   23.959465 H          1 MOL1         0.0754
@<TRIPOS>BOND
    1     1     2    1
    2     1     3    2
    3     1     4    1
    4     4     5    1
    5     4     6    1
    6     4     7    1
    7     7     8    1
    8     7     9    1
    9     7    10    1
   10    10    11    1
   11    10    12    1
   12    10    13    1
   13    13    14    1
   14    13    15    1
   15    13    16    1
   16    16    17    1
   17    16    18    1
   18    16    19    1
   19    19    20    1
   20    19    21    1
   21    19    22    1
@<TRIPOS>SUBSTRUCTURE
       1 MOL1            1 RESIDUE      1      MOL     
@<SCITEGIC>MOL_PROPERTY
VConf Rank
SciTegic.value.IntegerValue
892

@<SCITEGIC>MOL_PROPERTY
Conf_Id
SciTegic.value.IntegerValue
5

@<SCITEGIC>MOL_PROPERTY
Delta U+W
SciTegic.value.DoubleValue
2.167

@<SCITEGIC>MOL_PROPERTY
U+W
SciTegic.value.DoubleValue
-50.993

@<SCITEGIC>MOL_PROPERTY
Grad RMS
SciTegic.value.DoubleValue
0.000000

@<SCITEGIC>MOL_PROPERTY
U
SciTegic.value.DoubleValue
10.045

@<SCITEGIC>MOL_PROPERTY
W
SciTegic.value.DoubleValue
-61.037

@<SCITEGIC>MOL_PROPERTY
W(PB)
SciTegic.value.DoubleValue
-63.303

@<SCITEGIC>MOL_PROPERTY
W(SA)
SciTegic.value.DoubleValue
2.266

@<SCITEGIC>MOL_PROPERTY
Valence
SciTegic.value.DoubleValue
10.100

@<SCITEGIC>MOL_PROPERTY
Coulomb
SciTegic.value.DoubleValue
-0.883

@<SCITEGIC>MOL_PROPERTY
VdW
SciTegic.value.DoubleValue
0.828

@<SCITEGIC>MOL_PROPERTY
VdW6
SciTegic.value.DoubleValue
-8.177

@<SCITEGIC>MOL_PROPERTY
VdW12
SciTegic.value.DoubleValue
9.005

@<SCITEGIC>MOL_PROPERTY
Bond
SciTegic.value.DoubleValue
0.182

@<SCITEGIC>MOL_PROPERTY
Angle
SciTegic.value.DoubleValue
2.988

@<SCITEGIC>MOL_PROPERTY
Pdih
SciTegic.value.DoubleValue
6.930

@<SCITEGIC>MOL_PROPERTY
Idih
SciTegic.value.DoubleValue
0.001

@<SCITEGIC>MOL_PROPERTY
Tether
SciTegic.value.DoubleValue
0.000

@<TRIPOS>MOLECULE
guest-s21_confgen4.mol2 : confsearch ligand conformer 893
          22          21           1
SMALL
USER_CHARGES
 
@<TRIPOS>ATOM
       1    C1      19.617322   19.284447   25.662645 C.2        1 MOL1         0.6145
       2    O1      18.445853   19.220940   25.979183 O.co2      1 MOL1        -0.6735
       3    O2      20.513356   19.529566   26.445988 O.co2      1 MOL1        -0.6735
       4    C2      19.980828   19.067256   24.198168 C.3        1 MOL1        -0.1985
       5    H1      19.276706   18.335056   23.787284 H          1 MOL1         0.0740
       6    H2      20.982191   18.622380   24.157700 H          1 MOL1         0.0740
       7    C3      19.941462   20.376023   23.369483 C.3        1 MOL1        -0.1882
       8    H3      18.913535   20.763865   23.355397 H          1 MOL1         0.0742
       9    H4      20.549219   21.135031   23.881303 H          1 MOL1         0.0742
      10    C4      20.460780   20.228414   21.917177 C.3        1 MOL1        -0.1880
      11    H5      21.519698   19.935816   21.922882 H          1 MOL1         0.0742
      12    H6      20.428891   21.223231   21.452131 H          1 MOL1         0.0742
      13    C5      19.639111   19.256174   21.033253 C.3        1 MOL1        -0.1880
      14    H7      18.598702   19.215103   21.383719 H          1 MOL1         0.0742
      15    H8      19.601760   19.661003   20.012610 H          1 MOL1         0.0742
      16    C6      20.240848   17.833553   20.963839 C.3        1 MOL1        -0.1856
      17    H9      20.324771   17.400085   21.967545 H          1 MOL1         0.0742
      18    H10     21.260426   17.885329   20.557665 H          1 MOL1         0.0742
      19    C7      19.388036   16.901602   20.079807 C.3        1 MOL1        -0.2871
      20    H11     18.370306   16.804512   20.480006 H          1 MOL1         0.0754
      21    H12     19.831582   15.898473   20.034735 H          1 MOL1         0.0754
      22    H13     19.318090   17.287717   19.054451 H          1 MOL1         0.0754
@<TRIPOS>BOND
    1     1     2    1
    2     1     3    2
    3     1     4    1
    4     4     5    1
    5     4     6    1
    6     4     7    1
    7     7     8    1
    8     7     9    1
    9     7    10    1
   10    10    11    1
   11    10    12    1
   12    10    13    1
   13    13    14    1
   14    13    15    1
   15    13    16    1
   16    16    17    1
   17    16    18    1
   18    16    19    1
   19    19    20    1
   20    19    21    1
   21    19    22    1
@<TRIPOS>SUBSTRUCTURE
       1 MOL1            1 RESIDUE      1      MOL     
@<SCITEGIC>MOL_PROPERTY
VConf Rank
SciTegic.value.IntegerValue
893

@<SCITEGIC>MOL_PROPERTY
Conf_Id
SciTegic.value.IntegerValue
6

@<SCITEGIC>MOL_PROPERTY
Delta U+W
SciTegic.value.DoubleValue
2.118

@<SCITEGIC>MOL_PROPERTY
U+W
SciTegic.value.DoubleValue
-51.042

@<SCITEGIC>MOL_PROPERTY
Grad RMS
SciTegic.value.DoubleValue
0.000000

@<SCITEGIC>MOL_PROPERTY
U
SciTegic.value.DoubleValue
10.045

@<SCITEGIC>MOL_PROPERTY
W
SciTegic.value.DoubleValue
-61.086

@<SCITEGIC>MOL_PROPERTY
W(PB)
SciTegic.value.DoubleValue
-63.356

@<SCITEGIC>MOL_PROPERTY
W(SA)
SciTegic.value.DoubleValue
2.270

@<SCITEGIC>MOL_PROPERTY
Valence
SciTegic.value.DoubleValue
10.100

@<SCITEGIC>MOL_PROPERTY
Coulomb
SciTegic.value.DoubleValue
-0.883

@<SCITEGIC>MOL_PROPERTY
VdW
SciTegic.value.DoubleValue
0.828

@<SCITEGIC>MOL_PROPERTY
VdW6
SciTegic.value.DoubleValue
-8.177

@<SCITEGIC>MOL_PROPERTY
VdW12
SciTegic.value.DoubleValue
9.004

@<SCITEGIC>MOL_PROPERTY
Bond
SciTegic.value.DoubleValue
0.182

@<SCITEGIC>MOL_PROPERTY
Angle
SciTegic.value.DoubleValue
2.988

@<SCITEGIC>MOL_PROPERTY
Pdih
SciTegic.value.DoubleValue
6.930

@<SCITEGIC>MOL_PROPERTY
Idih
SciTegic.value.DoubleValue
0.001

@<SCITEGIC>MOL_PROPERTY
Tether
SciTegic.value.DoubleValue
0.000

@<TRIPOS>MOLECULE
guest-s21_confgen4.mol2 : confsearch ligand conformer 894
          22          21           1
SMALL
USER_CHARGES
 
@<TRIPOS>ATOM
       1    C1      20.648471   20.477546   20.589845 C.2        1 MOL1         0.6145
       2    O1      20.227536   19.997330   19.555582 O.co2      1 MOL1        -0.6735
       3    O2      21.810961   20.406829   20.937222 O.co2      1 MOL1        -0.6735
       4    C2      19.682396   21.272824   21.466024 C.3        1 MOL1        -0.1985
       5    H1      19.358407   22.131416   20.866539 H          1 MOL1         0.0740
       6    H2      20.231210   21.678801   22.324411 H          1 MOL1         0.0740
       7    C3      18.428133   20.491663   21.949441 C.3        1 MOL1        -0.1882
       8    H3      17.661231   21.224714   22.233907 H          1 MOL1         0.0742
       9    H4      18.001278   19.915900   21.116455 H          1 MOL1         0.0742
      10    C4      18.669276   19.565169   23.166968 C.3        1 MOL1        -0.1880
      11    H5      17.694751   19.192817   23.511392 H          1 MOL1         0.0742
      12    H6      19.088012   20.148611   23.998283 H          1 MOL1         0.0742
      13    C5      19.584735   18.356496   22.867715 C.3        1 MOL1        -0.1880
      14    H7      19.222797   17.832019   21.972745 H          1 MOL1         0.0742
      15    H8      20.601775   18.704384   22.647108 H          1 MOL1         0.0742
      16    C6      19.638947   17.373789   24.056536 C.3        1 MOL1        -0.1856
      17    H9      18.627484   17.009545   24.283742 H          1 MOL1         0.0742
      18    H10     19.999118   17.897388   24.952937 H          1 MOL1         0.0742
      19    C7      20.559985   16.173452   23.759387 C.3        1 MOL1        -0.2871
      20    H11     20.204501   15.613074   22.884757 H          1 MOL1         0.0754
      21    H12     20.587912   15.485787   24.614583 H          1 MOL1         0.0754
      22    H13     21.586570   16.506974   23.558421 H          1 MOL1         0.0754
@<TRIPOS>BOND
    1     1     2    1
    2     1     3    2
    3     1     4    1
    4     4     5    1
    5     4     6    1
    6     4     7    1
    7     7     8    1
    8     7     9    1
    9     7    10    1
   10    10    11    1
   11    10    12    1
   12    10    13    1
   13    13    14    1
   14    13    15    1
   15    13    16    1
   16    16    17    1
   17    16    18    1
   18    16    19    1
   19    19    20    1
   20    19    21    1
   21    19    22    1
@<TRIPOS>SUBSTRUCTURE
       1 MOL1            1 RESIDUE      1      MOL     
@<SCITEGIC>MOL_PROPERTY
VConf Rank
SciTegic.value.IntegerValue
894

@<SCITEGIC>MOL_PROPERTY
Conf_Id
SciTegic.value.IntegerValue
8

@<SCITEGIC>MOL_PROPERTY
Delta U+W
SciTegic.value.DoubleValue
1.886

@<SCITEGIC>MOL_PROPERTY
U+W
SciTegic.value.DoubleValue
-51.274

@<SCITEGIC>MOL_PROPERTY
Grad RMS
SciTegic.value.DoubleValue
0.000000

@<SCITEGIC>MOL_PROPERTY
U
SciTegic.value.DoubleValue
11.237

@<SCITEGIC>MOL_PROPERTY
W
SciTegic.value.DoubleValue
-62.510

@<SCITEGIC>MOL_PROPERTY
W(PB)
SciTegic.value.DoubleValue
-64.777

@<SCITEGIC>MOL_PROPERTY
W(SA)
SciTegic.value.DoubleValue
2.267

@<SCITEGIC>MOL_PROPERTY
Valence
SciTegic.value.DoubleValue
9.029

@<SCITEGIC>MOL_PROPERTY
Coulomb
SciTegic.value.DoubleValue
1.667

@<SCITEGIC>MOL_PROPERTY
VdW
SciTegic.value.DoubleValue
0.540

@<SCITEGIC>MOL_PROPERTY
VdW6
SciTegic.value.DoubleValue
-8.825

@<SCITEGIC>MOL_PROPERTY
VdW12
SciTegic.value.DoubleValue
9.365

@<SCITEGIC>MOL_PROPERTY
Bond
SciTegic.value.DoubleValue
0.186

@<SCITEGIC>MOL_PROPERTY
Angle
SciTegic.value.DoubleValue
3.195

@<SCITEGIC>MOL_PROPERTY
Pdih
SciTegic.value.DoubleValue
5.642

@<SCITEGIC>MOL_PROPERTY
Idih
SciTegic.value.DoubleValue
0.007

@<SCITEGIC>MOL_PROPERTY
Tether
SciTegic.value.DoubleValue
0.000

@<TRIPOS>MOLECULE
guest-s21_confgen4.mol2 : confsearch ligand conformer 895
          22          21           1
SMALL
USER_CHARGES
 
@<TRIPOS>ATOM
       1    C1      17.612102   21.018176   23.434317 C.2        1 MOL1         0.6145
       2    O1      18.059057   20.917208   24.559839 O.co2      1 MOL1        -0.6735
       3    O2      16.423861   21.001958   23.179115 O.co2      1 MOL1        -0.6735
       4    C2      18.592898   21.205736   22.280183 C.3        1 MOL1        -0.1985
       5    H1      19.571722   21.477008   22.691309 H          1 MOL1         0.0740
       6    H2      18.251085   22.070889   21.700186 H          1 MOL1         0.0740
       7    C3      18.712537   19.974080   21.341110 C.3        1 MOL1        -0.1882
       8    H3      17.730251   19.782353   20.887590 H          1 MOL1         0.0742
       9    H4      19.391148   20.217174   20.512422 H          1 MOL1         0.0742
      10    C4      19.200011   18.678430   22.035654 C.3        1 MOL1        -0.1880
      11    H5      19.153501   17.863488   21.302373 H          1 MOL1         0.0742
      12    H6      18.507128   18.407619   22.844046 H          1 MOL1         0.0742
      13    C5      20.638470   18.784696   22.598669 C.3        1 MOL1        -0.1880
      14    H7      21.331470   19.074621   21.797304 H          1 MOL1         0.0742
      15    H8      20.675241   19.584060   23.350066 H          1 MOL1         0.0742
      16    C6      21.134649   17.480743   23.266138 C.3        1 MOL1        -0.1856
      17    H9      20.434680   17.180147   24.058011 H          1 MOL1         0.0742
      18    H10     22.094287   17.683130   23.761427 H          1 MOL1         0.0742
      19    C7      21.327789   16.315694   22.271065 C.3        1 MOL1        -0.2871
      20    H11     20.372429   15.993975   21.838475 H          1 MOL1         0.0754
      21    H12     21.770709   15.448477   22.777676 H          1 MOL1         0.0754
      22    H13     21.997479   16.606167   21.451163 H          1 MOL1         0.0754
@<TRIPOS>BOND
    1     1     2    1
    2     1     3    2
    3     1     4    1
    4     4     5    1
    5     4     6    1
    6     4     7    1
    7     7     8    1
    8     7     9    1
    9     7    10    1
   10    10    11    1
   11    10    12    1
   12    10    13    1
   13    13    14    1
   14    13    15    1
   15    13    16    1
   16    16    17    1
   17    16    18    1
   18    16    19    1
   19    19    20    1
   20    19    21    1
   21    19    22    1
@<TRIPOS>SUBSTRUCTURE
       1 MOL1            1 RESIDUE      1      MOL     
@<SCITEGIC>MOL_PROPERTY
VConf Rank
SciTegic.value.IntegerValue
895

@<SCITEGIC>MOL_PROPERTY
Conf_Id
SciTegic.value.IntegerValue
93

@<SCITEGIC>MOL_PROPERTY
Delta U+W
SciTegic.value.DoubleValue
1.836

@<SCITEGIC>MOL_PROPERTY
U+W
SciTegic.value.DoubleValue
-51.323

@<SCITEGIC>MOL_PROPERTY
Grad RMS
SciTegic.value.DoubleValue
0.000000

@<SCITEGIC>MOL_PROPERTY
U
SciTegic.value.DoubleValue
10.427

@<SCITEGIC>MOL_PROPERTY
W
SciTegic.value.DoubleValue
-61.751

@<SCITEGIC>MOL_PROPERTY
W(PB)
SciTegic.value.DoubleValue
-63.980

@<SCITEGIC>MOL_PROPERTY
W(SA)
SciTegic.value.DoubleValue
2.230

@<SCITEGIC>MOL_PROPERTY
Valence
SciTegic.value.DoubleValue
8.446

@<SCITEGIC>MOL_PROPERTY
Coulomb
SciTegic.value.DoubleValue
1.306

@<SCITEGIC>MOL_PROPERTY
VdW
SciTegic.value.DoubleValue
0.676

@<SCITEGIC>MOL_PROPERTY
VdW6
SciTegic.value.DoubleValue
-8.928

@<SCITEGIC>MOL_PROPERTY
VdW12
SciTegic.value.DoubleValue
9.604

@<SCITEGIC>MOL_PROPERTY
Bond
SciTegic.value.DoubleValue
0.209

@<SCITEGIC>MOL_PROPERTY
Angle
SciTegic.value.DoubleValue
3.066

@<SCITEGIC>MOL_PROPERTY
Pdih
SciTegic.value.DoubleValue
5.170

@<SCITEGIC>MOL_PROPERTY
Idih
SciTegic.value.DoubleValue
0.001

@<SCITEGIC>MOL_PROPERTY
Tether
SciTegic.value.DoubleValue
0.000

@<TRIPOS>MOLECULE
guest-s21_confgen4.mol2 : confsearch ligand conformer 896
          22          21           1
SMALL
USER_CHARGES
 
@<TRIPOS>ATOM
       1    C1      20.481679   18.777673   19.474612 C.2        1 MOL1         0.6145
       2    O1      21.546009   18.354990   19.067371 O.co2      1 MOL1        -0.6735
       3    O2      20.074260   19.900320   19.250020 O.co2      1 MOL1        -0.6735
       4    C2      19.597146   17.835617   20.286581 C.3        1 MOL1        -0.1985
       5    H1      19.516982   16.898527   19.723413 H          1 MOL1         0.0740
       6    H2      18.586031   18.255405   20.332763 H          1 MOL1         0.0740
       7    C3      20.132753   17.532182   21.712836 C.3        1 MOL1        -0.1882
       8    H3      19.468265   16.806292   22.200557 H          1 MOL1         0.0742
       9    H4      21.111265   17.040561   21.622567 H          1 MOL1         0.0742
      10    C4      20.284291   18.776097   22.623025 C.3        1 MOL1        -0.1880
      11    H5      20.975803   19.492938   22.159477 H          1 MOL1         0.0742
      12    H6      20.755034   18.454049   23.560404 H          1 MOL1         0.0742
      13    C5      18.940338   19.478814   22.935153 C.3        1 MOL1        -0.1880
      14    H7      18.484608   19.821935   21.997330 H          1 MOL1         0.0742
      15    H8      18.239177   18.760278   23.380768 H          1 MOL1         0.0742
      16    C6      19.089719   20.703479   23.867823 C.3        1 MOL1        -0.1856
      17    H9      18.123725   21.224280   23.920717 H          1 MOL1         0.0742
      18    H10     19.802714   21.416751   23.431635 H          1 MOL1         0.0742
      19    C7      19.531749   20.334621   25.300779 C.3        1 MOL1        -0.2871
      20    H11     20.547383   19.920300   25.314033 H          1 MOL1         0.0754
      21    H12     18.851684   19.595428   25.743730 H          1 MOL1         0.0754
      22    H13     19.528566   21.224272   25.943747 H          1 MOL1         0.0754
@<TRIPOS>BOND
    1     1     2    1
    2     1     3    2
    3     1     4    1
    4     4     5    1
    5     4     6    1
    6     4     7    1
    7     7     8    1
    8     7     9    1
    9     7    10    1
   10    10    11    1
   11    10    12    1
   12    10    13    1
   13    13    14    1
   14    13    15    1
   15    13    16    1
   16    16    17    1
   17    16    18    1
   18    16    19    1
   19    19    20    1
   20    19    21    1
   21    19    22    1
@<TRIPOS>SUBSTRUCTURE
       1 MOL1            1 RESIDUE      1      MOL     
@<SCITEGIC>MOL_PROPERTY
VConf Rank
SciTegic.value.IntegerValue
896

@<SCITEGIC>MOL_PROPERTY
Conf_Id
SciTegic.value.IntegerValue
70

@<SCITEGIC>MOL_PROPERTY
Delta U+W
SciTegic.value.DoubleValue
1.803

@<SCITEGIC>MOL_PROPERTY
U+W
SciTegic.value.DoubleValue
-51.356

@<SCITEGIC>MOL_PROPERTY
Grad RMS
SciTegic.value.DoubleValue
0.000000

@<SCITEGIC>MOL_PROPERTY
U
SciTegic.value.DoubleValue
10.428

@<SCITEGIC>MOL_PROPERTY
W
SciTegic.value.DoubleValue
-61.784

@<SCITEGIC>MOL_PROPERTY
W(PB)
SciTegic.value.DoubleValue
-64.014

@<SCITEGIC>MOL_PROPERTY
W(SA)
SciTegic.value.DoubleValue
2.230

@<SCITEGIC>MOL_PROPERTY
Valence
SciTegic.value.DoubleValue
8.445

@<SCITEGIC>MOL_PROPERTY
Coulomb
SciTegic.value.DoubleValue
1.306

@<SCITEGIC>MOL_PROPERTY
VdW
SciTegic.value.DoubleValue
0.676

@<SCITEGIC>MOL_PROPERTY
VdW6
SciTegic.value.DoubleValue
-8.929

@<SCITEGIC>MOL_PROPERTY
VdW12
SciTegic.value.DoubleValue
9.605

@<SCITEGIC>MOL_PROPERTY
Bond
SciTegic.value.DoubleValue
0.209

@<SCITEGIC>MOL_PROPERTY
Angle
SciTegic.value.DoubleValue
3.066

@<SCITEGIC>MOL_PROPERTY
Pdih
SciTegic.value.DoubleValue
5.170

@<SCITEGIC>MOL_PROPERTY
Idih
SciTegic.value.DoubleValue
0.001

@<SCITEGIC>MOL_PROPERTY
Tether
SciTegic.value.DoubleValue
0.000

@<TRIPOS>MOLECULE
guest-s21_confgen4.mol2 : confsearch ligand conformer 897
          22          21           1
SMALL
USER_CHARGES
 
@<TRIPOS>ATOM
       1    C1      16.954932   19.912214   24.060988 C.2        1 MOL1         0.6145
       2    O1      16.536043   18.863192   24.509316 O.co2      1 MOL1        -0.6735
       3    O2      16.297866   20.651922   23.355315 O.co2      1 MOL1        -0.6735
       4    C2      18.377039   20.331784   24.422472 C.3        1 MOL1        -0.1985
       5    H1      18.506813   20.160285   25.497547 H          1 MOL1         0.0740
       6    H2      18.475593   21.411836   24.259336 H          1 MOL1         0.0740
       7    C3      19.476851   19.568422   23.639737 C.3        1 MOL1        -0.1882
       8    H3      20.459008   19.835594   24.052352 H          1 MOL1         0.0742
       9    H4      19.345947   18.490508   23.802821 H          1 MOL1         0.0742
      10    C4      19.454969   19.887129   22.125633 C.3        1 MOL1        -0.1880
      11    H5      19.498930   20.976348   21.989577 H          1 MOL1         0.0742
      12    H6      18.501445   19.559371   21.688975 H          1 MOL1         0.0742
      13    C5      20.626676   19.246732   21.344274 C.3        1 MOL1        -0.1880
      14    H7      20.603165   19.622547   20.312237 H          1 MOL1         0.0742
      15    H8      21.581460   19.579139   21.774108 H          1 MOL1         0.0742
      16    C6      20.576982   17.702406   21.316793 C.3        1 MOL1        -0.1856
      17    H9      19.601350   17.369887   20.936211 H          1 MOL1         0.0742
      18    H10     20.677261   17.302446   22.334307 H          1 MOL1         0.0742
      19    C7      21.697783   17.116175   20.434823 C.3        1 MOL1        -0.2871
      20    H11     21.605701   17.465412   19.398046 H          1 MOL1         0.0754
      21    H12     21.650920   16.019444   20.428147 H          1 MOL1         0.0754
      22    H13     22.686720   17.411005   20.809590 H          1 MOL1         0.0754
@<TRIPOS>BOND
    1     1     2    1
    2     1     3    2
    3     1     4    1
    4     4     5    1
    5     4     6    1
    6     4     7    1
    7     7     8    1
    8     7     9    1
    9     7    10    1
   10    10    11    1
   11    10    12    1
   12    10    13    1
   13    13    14    1
   14    13    15    1
   15    13    16    1
   16    16    17    1
   17    16    18    1
   18    16    19    1
   19    19    20    1
   20    19    21    1
   21    19    22    1
@<TRIPOS>SUBSTRUCTURE
       1 MOL1            1 RESIDUE      1      MOL     
@<SCITEGIC>MOL_PROPERTY
VConf Rank
SciTegic.value.IntegerValue
897

@<SCITEGIC>MOL_PROPERTY
Conf_Id
SciTegic.value.IntegerValue
85

@<SCITEGIC>MOL_PROPERTY
Delta U+W
SciTegic.value.DoubleValue
0.707

@<SCITEGIC>MOL_PROPERTY
U+W
SciTegic.value.DoubleValue
-52.452

@<SCITEGIC>MOL_PROPERTY
Grad RMS
SciTegic.value.DoubleValue
0.000000

@<SCITEGIC>MOL_PROPERTY
U
SciTegic.value.DoubleValue
8.925

@<SCITEGIC>MOL_PROPERTY
W
SciTegic.value.DoubleValue
-61.378

@<SCITEGIC>MOL_PROPERTY
W(PB)
SciTegic.value.DoubleValue
-63.661

@<SCITEGIC>MOL_PROPERTY
W(SA)
SciTegic.value.DoubleValue
2.283

@<SCITEGIC>MOL_PROPERTY
Valence
SciTegic.value.DoubleValue
7.881

@<SCITEGIC>MOL_PROPERTY
Coulomb
SciTegic.value.DoubleValue
0.349

@<SCITEGIC>MOL_PROPERTY
VdW
SciTegic.value.DoubleValue
0.695

@<SCITEGIC>MOL_PROPERTY
VdW6
SciTegic.value.DoubleValue
-8.049

@<SCITEGIC>MOL_PROPERTY
VdW12
SciTegic.value.DoubleValue
8.743

@<SCITEGIC>MOL_PROPERTY
Bond
SciTegic.value.DoubleValue
0.156

@<SCITEGIC>MOL_PROPERTY
Angle
SciTegic.value.DoubleValue
2.660

@<SCITEGIC>MOL_PROPERTY
Pdih
SciTegic.value.DoubleValue
5.064

@<SCITEGIC>MOL_PROPERTY
Idih
SciTegic.value.DoubleValue
0.001

@<SCITEGIC>MOL_PROPERTY
Tether
SciTegic.value.DoubleValue
0.000

@<TRIPOS>MOLECULE
guest-s21_confgen4.mol2 : confsearch ligand conformer 898
          22          21           1
SMALL
USER_CHARGES
 
@<TRIPOS>ATOM
       1    C1      20.773570   21.894714   21.284798 C.2        1 MOL1         0.6145
       2    O1      21.137880   21.877154   20.125527 O.co2      1 MOL1        -0.6735
       3    O2      19.995040   22.713644   21.732256 O.co2      1 MOL1        -0.6735
       4    C2      21.341336   20.846310   22.237629 C.3        1 MOL1        -0.1985
       5    H1      21.647758   21.367824   23.152024 H          1 MOL1         0.0740
       6    H2      22.250692   20.423914   21.793210 H          1 MOL1         0.0740
       7    C3      20.345450   19.713192   22.598106 C.3        1 MOL1        -0.1882
       8    H3      20.786948   19.107238   23.399234 H          1 MOL1         0.0742
       9    H4      19.421327   20.152841   22.998084 H          1 MOL1         0.0742
      10    C4      20.016484   18.803833   21.391487 C.3        1 MOL1        -0.1880
      11    H5      20.932941   18.302116   21.052243 H          1 MOL1         0.0742
      12    H6      19.679334   19.426643   20.551678 H          1 MOL1         0.0742
      13    C5      18.922676   17.743383   21.673541 C.3        1 MOL1        -0.1880
      14    H7      17.974299   18.238205   21.923860 H          1 MOL1         0.0742
      15    H8      18.737999   17.202698   20.735233 H          1 MOL1         0.0742
      16    C6      19.290442   16.705264   22.763017 C.3        1 MOL1        -0.1856
      17    H9      20.380260   16.574872   22.813065 H          1 MOL1         0.0742
      18    H10     18.879465   15.729063   22.470736 H          1 MOL1         0.0742
      19    C7      18.728429   17.060970   24.157522 C.3        1 MOL1        -0.2871
      20    H11     19.111295   18.021906   24.519347 H          1 MOL1         0.0754
      21    H12     19.005492   16.292333   24.890496 H          1 MOL1         0.0754
      22    H13     17.632604   17.121230   24.132553 H          1 MOL1         0.0754
@<TRIPOS>BOND
    1     1     2    1
    2     1     3    2
    3     1     4    1
    4     4     5    1
    5     4     6    1
    6     4     7    1
    7     7     8    1
    8     7     9    1
    9     7    10    1
   10    10    11    1
   11    10    12    1
   12    10    13    1
   13    13    14    1
   14    13    15    1
   15    13    16    1
   16    16    17    1
   17    16    18    1
   18    16    19    1
   19    19    20    1
   20    19    21    1
   21    19    22    1
@<TRIPOS>SUBSTRUCTURE
       1 MOL1            1 RESIDUE      1      MOL     
@<SCITEGIC>MOL_PROPERTY
VConf Rank
SciTegic.value.IntegerValue
898

@<SCITEGIC>MOL_PROPERTY
Conf_Id
SciTegic.value.IntegerValue
82

@<SCITEGIC>MOL_PROPERTY
Delta U+W
SciTegic.value.DoubleValue
3.438

@<SCITEGIC>MOL_PROPERTY
U+W
SciTegic.value.DoubleValue
-49.721

@<SCITEGIC>MOL_PROPERTY
Grad RMS
SciTegic.value.DoubleValue
0.000000

@<SCITEGIC>MOL_PROPERTY
U
SciTegic.value.DoubleValue
11.773

@<SCITEGIC>MOL_PROPERTY
W
SciTegic.value.DoubleValue
-61.495

@<SCITEGIC>MOL_PROPERTY
W(PB)
SciTegic.value.DoubleValue
-63.749

@<SCITEGIC>MOL_PROPERTY
W(SA)
SciTegic.value.DoubleValue
2.254

@<SCITEGIC>MOL_PROPERTY
Valence
SciTegic.value.DoubleValue
10.419

@<SCITEGIC>MOL_PROPERTY
Coulomb
SciTegic.value.DoubleValue
0.565

@<SCITEGIC>MOL_PROPERTY
VdW
SciTegic.value.DoubleValue
0.789

@<SCITEGIC>MOL_PROPERTY
VdW6
SciTegic.value.DoubleValue
-8.847

@<SCITEGIC>MOL_PROPERTY
VdW12
SciTegic.value.DoubleValue
9.636

@<SCITEGIC>MOL_PROPERTY
Bond
SciTegic.value.DoubleValue
0.200

@<SCITEGIC>MOL_PROPERTY
Angle
SciTegic.value.DoubleValue
3.187

@<SCITEGIC>MOL_PROPERTY
Pdih
SciTegic.value.DoubleValue
7.032

@<SCITEGIC>MOL_PROPERTY
Idih
SciTegic.value.DoubleValue
0.001

@<SCITEGIC>MOL_PROPERTY
Tether
SciTegic.value.DoubleValue
0.000

@<TRIPOS>MOLECULE
guest-s21_confgen4.mol2 : confsearch ligand conformer 899
          22          21           1
SMALL
USER_CHARGES
 
@<TRIPOS>ATOM
       1    C1      16.706473   18.519142   23.167841 C.2        1 MOL1         0.6145
       2    O1      16.640209   18.089956   24.302910 O.co2      1 MOL1        -0.6735
       3    O2      16.014956   19.427632   22.751441 O.co2      1 MOL1        -0.6735
       4    C2      17.696354   17.864753   22.207992 C.3        1 MOL1        -0.1985
       5    H1      17.403197   18.110402   21.180095 H          1 MOL1         0.0740
       6    H2      17.588806   16.779228   22.317811 H          1 MOL1         0.0740
       7    C3      19.174649   18.264961   22.453282 C.3        1 MOL1        -0.1882
       8    H3      19.440513   18.057115   23.498937 H          1 MOL1         0.0742
       9    H4      19.813001   17.629956   21.826240 H          1 MOL1         0.0742
      10    C4      19.451352   19.750485   22.125051 C.3        1 MOL1        -0.1880
      11    H5      18.735326   20.379990   22.670826 H          1 MOL1         0.0742
      12    H6      19.264603   19.929092   21.057378 H          1 MOL1         0.0742
      13    C5      20.881490   20.225830   22.484605 C.3        1 MOL1        -0.1880
      14    H7      20.937910   21.299862   22.260688 H          1 MOL1         0.0742
      15    H8      21.046245   20.138167   23.567239 H          1 MOL1         0.0742
      16    C6      22.017000   19.512117   21.709281 C.3        1 MOL1        -0.1856
      17    H9      22.808618   20.243155   21.494288 H          1 MOL1         0.0742
      18    H10     21.651466   19.162516   20.733896 H          1 MOL1         0.0742
      19    C7      22.649279   18.342119   22.495636 C.3        1 MOL1        -0.2871
      20    H11     23.082699   18.696138   23.440043 H          1 MOL1         0.0754
      21    H12     23.453445   17.876947   21.911041 H          1 MOL1         0.0754
      22    H13     21.914380   17.564318   22.731968 H          1 MOL1         0.0754
@<TRIPOS>BOND
    1     1     2    1
    2     1     3    2
    3     1     4    1
    4     4     5    1
    5     4     6    1
    6     4     7    1
    7     7     8    1
    8     7     9    1
    9     7    10    1
   10    10    11    1
   11    10    12    1
   12    10    13    1
   13    13    14    1
   14    13    15    1
   15    13    16    1
   16    16    17    1
   17    16    18    1
   18    16    19    1
   19    19    20    1
   20    19    21    1
   21    19    22    1
@<TRIPOS>SUBSTRUCTURE
       1 MOL1            1 RESIDUE      1      MOL     
@<SCITEGIC>MOL_PROPERTY
VConf Rank
SciTegic.value.IntegerValue
899

@<SCITEGIC>MOL_PROPERTY
Conf_Id
SciTegic.value.IntegerValue
94

@<SCITEGIC>MOL_PROPERTY
Delta U+W
SciTegic.value.DoubleValue
3.471

@<SCITEGIC>MOL_PROPERTY
U+W
SciTegic.value.DoubleValue
-49.688

@<SCITEGIC>MOL_PROPERTY
Grad RMS
SciTegic.value.DoubleValue
0.000000

@<SCITEGIC>MOL_PROPERTY
U
SciTegic.value.DoubleValue
11.773

@<SCITEGIC>MOL_PROPERTY
W
SciTegic.value.DoubleValue
-61.461

@<SCITEGIC>MOL_PROPERTY
W(PB)
SciTegic.value.DoubleValue
-63.710

@<SCITEGIC>MOL_PROPERTY
W(SA)
SciTegic.value.DoubleValue
2.248

@<SCITEGIC>MOL_PROPERTY
Valence
SciTegic.value.DoubleValue
10.419

@<SCITEGIC>MOL_PROPERTY
Coulomb
SciTegic.value.DoubleValue
0.566

@<SCITEGIC>MOL_PROPERTY
VdW
SciTegic.value.DoubleValue
0.789

@<SCITEGIC>MOL_PROPERTY
VdW6
SciTegic.value.DoubleValue
-8.847

@<SCITEGIC>MOL_PROPERTY
VdW12
SciTegic.value.DoubleValue
9.636

@<SCITEGIC>MOL_PROPERTY
Bond
SciTegic.value.DoubleValue
0.200

@<SCITEGIC>MOL_PROPERTY
Angle
SciTegic.value.DoubleValue
3.187

@<SCITEGIC>MOL_PROPERTY
Pdih
SciTegic.value.DoubleValue
7.032

@<SCITEGIC>MOL_PROPERTY
Idih
SciTegic.value.DoubleValue
0.001

@<SCITEGIC>MOL_PROPERTY
Tether
SciTegic.value.DoubleValue
0.000

@<TRIPOS>MOLECULE
guest-s21_confgen4.mol2 : confsearch ligand conformer 900
          22          21           1
SMALL
USER_CHARGES
 
@<TRIPOS>ATOM
       1    C1      17.354003   16.862664   22.140197 C.2        1 MOL1         0.6145
       2    O1      17.010996   15.948655   22.863822 O.co2      1 MOL1        -0.6735
       3    O2      17.180964   16.869575   20.937456 O.co2      1 MOL1        -0.6735
       4    C2      18.057269   18.057474   22.774056 C.3        1 MOL1        -0.1985
       5    H1      17.654003   18.194019   23.784484 H          1 MOL1         0.0740
       6    H2      17.790742   18.948055   22.193657 H          1 MOL1         0.0740
       7    C3      19.597358   17.886313   22.831363 C.3        1 MOL1        -0.1882
       8    H3      19.828871   16.944208   23.347056 H          1 MOL1         0.0742
       9    H4      19.993546   17.780142   21.812742 H          1 MOL1         0.0742
      10    C4      20.320892   19.042445   23.566397 C.3        1 MOL1        -0.1880
      11    H5      21.395045   18.819118   23.608752 H          1 MOL1         0.0742
      12    H6      19.981088   19.066012   24.610678 H          1 MOL1         0.0742
      13    C5      20.114806   20.450051   22.947253 C.3        1 MOL1        -0.1880
      14    H7      19.062146   20.743232   23.053095 H          1 MOL1         0.0742
      15    H8      20.686123   21.178999   23.537828 H          1 MOL1         0.0742
      16    C6      20.525354   20.582357   21.460016 C.3        1 MOL1        -0.1856
      17    H9      20.310730   21.607100   21.127231 H          1 MOL1         0.0742
      18    H10     19.905384   19.924381   20.836552 H          1 MOL1         0.0742
      19    C7      22.019037   20.281517   21.210598 C.3        1 MOL1        -0.2871
      20    H11     22.657708   20.917817   21.836837 H          1 MOL1         0.0754
      21    H12     22.278820   20.469334   20.160845 H          1 MOL1         0.0754
      22    H13     22.256280   19.232901   21.429862 H          1 MOL1         0.0754
@<TRIPOS>BOND
    1     1     2    1
    2     1     3    2
    3     1     4    1
    4     4     5    1
    5     4     6    1
    6     4     7    1
    7     7     8    1
    8     7     9    1
    9     7    10    1
   10    10    11    1
   11    10    12    1
   12    10    13    1
   13    13    14    1
   14    13    15    1
   15    13    16    1
   16    16    17    1
   17    16    18    1
   18    16    19    1
   19    19    20    1
   20    19    21    1
   21    19    22    1
@<TRIPOS>SUBSTRUCTURE
       1 MOL1            1 RESIDUE      1      MOL     
@<SCITEGIC>MOL_PROPERTY
VConf Rank
SciTegic.value.IntegerValue
900

@<SCITEGIC>MOL_PROPERTY
Conf_Id
SciTegic.value.IntegerValue
56

@<SCITEGIC>MOL_PROPERTY
Delta U+W
SciTegic.value.DoubleValue
0.853

@<SCITEGIC>MOL_PROPERTY
U+W
SciTegic.value.DoubleValue
-52.307

@<SCITEGIC>MOL_PROPERTY
Grad RMS
SciTegic.value.DoubleValue
0.000000

@<SCITEGIC>MOL_PROPERTY
U
SciTegic.value.DoubleValue
8.874

@<SCITEGIC>MOL_PROPERTY
W
SciTegic.value.DoubleValue
-61.181

@<SCITEGIC>MOL_PROPERTY
W(PB)
SciTegic.value.DoubleValue
-63.413

@<SCITEGIC>MOL_PROPERTY
W(SA)
SciTegic.value.DoubleValue
2.232

@<SCITEGIC>MOL_PROPERTY
Valence
SciTegic.value.DoubleValue
8.479

@<SCITEGIC>MOL_PROPERTY
Coulomb
SciTegic.value.DoubleValue
-0.357

@<SCITEGIC>MOL_PROPERTY
VdW
SciTegic.value.DoubleValue
0.753

@<SCITEGIC>MOL_PROPERTY
VdW6
SciTegic.value.DoubleValue
-9.081

@<SCITEGIC>MOL_PROPERTY
VdW12
SciTegic.value.DoubleValue
9.833

@<SCITEGIC>MOL_PROPERTY
Bond
SciTegic.value.DoubleValue
0.221

@<SCITEGIC>MOL_PROPERTY
Angle
SciTegic.value.DoubleValue
3.208

@<SCITEGIC>MOL_PROPERTY
Pdih
SciTegic.value.DoubleValue
5.050

@<SCITEGIC>MOL_PROPERTY
Idih
SciTegic.value.DoubleValue
0.000

@<SCITEGIC>MOL_PROPERTY
Tether
SciTegic.value.DoubleValue
0.000

@<TRIPOS>MOLECULE
guest-s21_confgen4.mol2 : confsearch ligand conformer 901
          22          21           1
SMALL
USER_CHARGES
 
@<TRIPOS>ATOM
       1    C1      16.890610   16.430695   20.941430 C.2        1 MOL1         0.6145
       2    O1      16.107508   16.834994   21.779102 O.co2      1 MOL1        -0.6735
       3    O2      16.614812   15.559060   20.141361 O.co2      1 MOL1        -0.6735
       4    C2      18.296883   17.027588   20.866316 C.3        1 MOL1        -0.1985
       5    H1      18.430259   17.423692   19.852767 H          1 MOL1         0.0740
       6    H2      19.009057   16.202512   20.984740 H          1 MOL1         0.0740
       7    C3      18.602121   18.137288   21.907375 C.3        1 MOL1        -0.1882
       8    H3      17.881241   18.957908   21.787358 H          1 MOL1         0.0742
       9    H4      18.460749   17.735583   22.920359 H          1 MOL1         0.0742
      10    C4      20.039316   18.682692   21.760681 C.3        1 MOL1        -0.1880
      11    H5      20.178247   19.083702   20.747261 H          1 MOL1         0.0742
      12    H6      20.758147   17.860525   21.880898 H          1 MOL1         0.0742
      13    C5      20.340868   19.786308   22.797217 C.3        1 MOL1        -0.1880
      14    H7      19.622228   20.608703   22.677426 H          1 MOL1         0.0742
      15    H8      20.202096   19.385738   23.810831 H          1 MOL1         0.0742
      16    C6      21.776893   20.331837   22.651157 C.3        1 MOL1        -0.1856
      17    H9      21.918830   20.735315   21.638963 H          1 MOL1         0.0742
      18    H10     22.498741   19.512251   22.772351 H          1 MOL1         0.0742
      19    C7      22.074059   21.433601   23.688048 C.3        1 MOL1        -0.2871
      20    H11     21.385947   22.280810   23.569112 H          1 MOL1         0.0754
      21    H12     23.098523   21.809905   23.569889 H          1 MOL1         0.0754
      22    H13     21.970272   21.048570   24.710979 H          1 MOL1         0.0754
@<TRIPOS>BOND
    1     1     2    1
    2     1     3    2
    3     1     4    1
    4     4     5    1
    5     4     6    1
    6     4     7    1
    7     7     8    1
    8     7     9    1
    9     7    10    1
   10    10    11    1
   11    10    12    1
   12    10    13    1
   13    13    14    1
   14    13    15    1
   15    13    16    1
   16    16    17    1
   17    16    18    1
   18    16    19    1
   19    19    20    1
   20    19    21    1
   21    19    22    1
@<TRIPOS>SUBSTRUCTURE
       1 MOL1            1 RESIDUE      1      MOL     
@<SCITEGIC>MOL_PROPERTY
VConf Rank
SciTegic.value.IntegerValue
901

@<SCITEGIC>MOL_PROPERTY
Conf_Id
SciTegic.value.IntegerValue
0

@<SCITEGIC>MOL_PROPERTY
Delta U+W
SciTegic.value.DoubleValue
0.000

@<SCITEGIC>MOL_PROPERTY
U+W
SciTegic.value.DoubleValue
-53.159

@<SCITEGIC>MOL_PROPERTY
Grad RMS
SciTegic.value.DoubleValue
0.000000

@<SCITEGIC>MOL_PROPERTY
U
SciTegic.value.DoubleValue
6.763

@<SCITEGIC>MOL_PROPERTY
W
SciTegic.value.DoubleValue
-59.922

@<SCITEGIC>MOL_PROPERTY
W(PB)
SciTegic.value.DoubleValue
-62.256

@<SCITEGIC>MOL_PROPERTY
W(SA)
SciTegic.value.DoubleValue
2.334

@<SCITEGIC>MOL_PROPERTY
Valence
SciTegic.value.DoubleValue
7.600

@<SCITEGIC>MOL_PROPERTY
Coulomb
SciTegic.value.DoubleValue
-2.139

@<SCITEGIC>MOL_PROPERTY
VdW
SciTegic.value.DoubleValue
1.302

@<SCITEGIC>MOL_PROPERTY
VdW6
SciTegic.value.DoubleValue
-6.786

@<SCITEGIC>MOL_PROPERTY
VdW12
SciTegic.value.DoubleValue
8.088

@<SCITEGIC>MOL_PROPERTY
Bond
SciTegic.value.DoubleValue
0.134

@<SCITEGIC>MOL_PROPERTY
Angle
SciTegic.value.DoubleValue
2.720

@<SCITEGIC>MOL_PROPERTY
Pdih
SciTegic.value.DoubleValue
4.746

@<SCITEGIC>MOL_PROPERTY
Idih
SciTegic.value.DoubleValue
0.000

@<SCITEGIC>MOL_PROPERTY
Tether
SciTegic.value.DoubleValue
0.000

@<TRIPOS>MOLECULE
guest-s21_confgen4.mol2 : confsearch ligand conformer 902
          22          21           1
SMALL
USER_CHARGES
 
@<TRIPOS>ATOM
       1    C1      16.099469   18.222279   20.778254 C.2        1 MOL1         0.6145
       2    O1      15.318897   19.144735   20.905585 O.co2      1 MOL1        -0.6735
       3    O2      15.774267   17.052840   20.833810 O.co2      1 MOL1        -0.6735
       4    C2      17.572049   18.550359   20.558969 C.3        1 MOL1        -0.1985
       5    H1      17.631646   19.486766   19.991296 H          1 MOL1         0.0740
       6    H2      18.006867   17.762788   19.931812 H          1 MOL1         0.0740
       7    C3      18.364015   18.677022   21.883656 C.3        1 MOL1        -0.1882
       8    H3      17.908357   19.460216   22.505392 H          1 MOL1         0.0742
       9    H4      18.283568   17.736291   22.445908 H          1 MOL1         0.0742
      10    C4      19.851143   19.009284   21.634793 C.3        1 MOL1        -0.1880
      11    H5      19.927963   19.949499   21.071529 H          1 MOL1         0.0742
      12    H6      20.303265   18.225146   21.011989 H          1 MOL1         0.0742
      13    C5      20.638049   19.134896   22.957023 C.3        1 MOL1        -0.1880
      14    H7      20.186224   19.918940   23.580124 H          1 MOL1         0.0742
      15    H8      20.561465   18.194873   23.520598 H          1 MOL1         0.0742
      16    C6      22.124436   19.466970   22.709132 C.3        1 MOL1        -0.1856
      17    H9      22.205201   20.407849   22.147260 H          1 MOL1         0.0742
      18    H10     22.580447   18.683787   22.087718 H          1 MOL1         0.0742
      19    C7      22.906770   19.591567   24.031921 C.3        1 MOL1        -0.2871
      20    H11     22.869209   18.653031   24.600382 H          1 MOL1         0.0754
      21    H12     22.491006   20.390005   24.660446 H          1 MOL1         0.0754
      22    H13     23.960965   19.827840   23.837136 H          1 MOL1         0.0754
@<TRIPOS>BOND
    1     1     2    1
    2     1     3    2
    3     1     4    1
    4     4     5    1
    5     4     6    1
    6     4     7    1
    7     7     8    1
    8     7     9    1
    9     7    10    1
   10    10    11    1
   11    10    12    1
   12    10    13    1
   13    13    14    1
   14    13    15    1
   15    13    16    1
   16    16    17    1
   17    16    18    1
   18    16    19    1
   19    19    20    1
   20    19    21    1
   21    19    22    1
@<TRIPOS>SUBSTRUCTURE
       1 MOL1            1 RESIDUE      1      MOL     
@<SCITEGIC>MOL_PROPERTY
VConf Rank
SciTegic.value.IntegerValue
902

@<SCITEGIC>MOL_PROPERTY
Conf_Id
SciTegic.value.IntegerValue
10

@<SCITEGIC>MOL_PROPERTY
Delta U+W
SciTegic.value.DoubleValue
-1.291

@<SCITEGIC>MOL_PROPERTY
U+W
SciTegic.value.DoubleValue
-54.451

@<SCITEGIC>MOL_PROPERTY
Grad RMS
SciTegic.value.DoubleValue
0.000000

@<SCITEGIC>MOL_PROPERTY
U
SciTegic.value.DoubleValue
5.779

@<SCITEGIC>MOL_PROPERTY
W
SciTegic.value.DoubleValue
-60.230

@<SCITEGIC>MOL_PROPERTY
W(PB)
SciTegic.value.DoubleValue
-62.557

@<SCITEGIC>MOL_PROPERTY
W(SA)
SciTegic.value.DoubleValue
2.328

@<SCITEGIC>MOL_PROPERTY
Valence
SciTegic.value.DoubleValue
7.101

@<SCITEGIC>MOL_PROPERTY
Coulomb
SciTegic.value.DoubleValue
-2.079

@<SCITEGIC>MOL_PROPERTY
VdW
SciTegic.value.DoubleValue
0.757

@<SCITEGIC>MOL_PROPERTY
VdW6
SciTegic.value.DoubleValue
-6.496

@<SCITEGIC>MOL_PROPERTY
VdW12
SciTegic.value.DoubleValue
7.253

@<SCITEGIC>MOL_PROPERTY
Bond
SciTegic.value.DoubleValue
0.100

@<SCITEGIC>MOL_PROPERTY
Angle
SciTegic.value.DoubleValue
2.262

@<SCITEGIC>MOL_PROPERTY
Pdih
SciTegic.value.DoubleValue
4.738

@<SCITEGIC>MOL_PROPERTY
Idih
SciTegic.value.DoubleValue
0.001

@<SCITEGIC>MOL_PROPERTY
Tether
SciTegic.value.DoubleValue
0.000

@<TRIPOS>MOLECULE
guest-s21_confgen4.mol2 : confsearch ligand conformer 903
          22          21           1
SMALL
USER_CHARGES
 
@<TRIPOS>ATOM
       1    C1      22.466771   21.641954   21.144060 C.2        1 MOL1         0.6145
       2    O1      23.336535   21.198937   20.420389 O.co2      1 MOL1        -0.6735
       3    O2      22.110522   22.803615   21.134781 O.co2      1 MOL1        -0.6735
       4    C2      21.769296   20.682653   22.101911 C.3        1 MOL1        -0.1985
       5    H1      21.486213   21.244044   23.000438 H          1 MOL1         0.0740
       6    H2      22.495726   19.921351   22.410740 H          1 MOL1         0.0740
       7    C3      20.522313   20.009382   21.477498 C.3        1 MOL1        -0.1882
       8    H3      19.811288   20.785387   21.161629 H          1 MOL1         0.0742
       9    H4      20.820261   19.462005   20.572425 H          1 MOL1         0.0742
      10    C4      19.834579   19.043484   22.466644 C.3        1 MOL1        -0.1880
      11    H5      19.536007   19.593754   23.369369 H          1 MOL1         0.0742
      12    H6      20.555154   18.277241   22.780983 H          1 MOL1         0.0742
      13    C5      18.592650   18.371255   21.837375 C.3        1 MOL1        -0.1880
      14    H7      17.914501   19.151055   21.464603 H          1 MOL1         0.0742
      15    H8      18.895404   17.778452   20.963385 H          1 MOL1         0.0742
      16    C6      17.812329   17.473717   22.825723 C.3        1 MOL1        -0.1856
      17    H9      16.888640   17.132699   22.338135 H          1 MOL1         0.0742
      18    H10     17.502321   18.064868   23.698503 H          1 MOL1         0.0742
      19    C7      18.612803   16.238628   23.292637 C.3        1 MOL1        -0.2871
      20    H11     17.986839   15.590041   23.919073 H          1 MOL1         0.0754
      21    H12     19.487982   16.529463   23.886926 H          1 MOL1         0.0754
      22    H13     18.959290   15.647661   22.434826 H          1 MOL1         0.0754
@<TRIPOS>BOND
    1     1     2    1
    2     1     3    2
    3     1     4    1
    4     4     5    1
    5     4     6    1
    6     4     7    1
    7     7     8    1
    8     7     9    1
    9     7    10    1
   10    10    11    1
   11    10    12    1
   12    10    13    1
   13    13    14    1
   14    13    15    1
   15    13    16    1
   16    16    17    1
   17    16    18    1
   18    16    19    1
   19    19    20    1
   20    19    21    1
   21    19    22    1
@<TRIPOS>SUBSTRUCTURE
       1 MOL1            1 RESIDUE      1      MOL     
@<SCITEGIC>MOL_PROPERTY
VConf Rank
SciTegic.value.IntegerValue
903

@<SCITEGIC>MOL_PROPERTY
Conf_Id
SciTegic.value.IntegerValue
37

@<SCITEGIC>MOL_PROPERTY
Delta U+W
SciTegic.value.DoubleValue
-0.345

@<SCITEGIC>MOL_PROPERTY
U+W
SciTegic.value.DoubleValue
-53.504

@<SCITEGIC>MOL_PROPERTY
Grad RMS
SciTegic.value.DoubleValue
0.000000

@<SCITEGIC>MOL_PROPERTY
U
SciTegic.value.DoubleValue
6.751

@<SCITEGIC>MOL_PROPERTY
W
SciTegic.value.DoubleValue
-60.255

@<SCITEGIC>MOL_PROPERTY
W(PB)
SciTegic.value.DoubleValue
-62.592

@<SCITEGIC>MOL_PROPERTY
W(SA)
SciTegic.value.DoubleValue
2.336

@<SCITEGIC>MOL_PROPERTY
Valence
SciTegic.value.DoubleValue
7.602

@<SCITEGIC>MOL_PROPERTY
Coulomb
SciTegic.value.DoubleValue
-1.744

@<SCITEGIC>MOL_PROPERTY
VdW
SciTegic.value.DoubleValue
0.894

@<SCITEGIC>MOL_PROPERTY
VdW6
SciTegic.value.DoubleValue
-7.110

@<SCITEGIC>MOL_PROPERTY
VdW12
SciTegic.value.DoubleValue
8.004

@<SCITEGIC>MOL_PROPERTY
Bond
SciTegic.value.DoubleValue
0.131

@<SCITEGIC>MOL_PROPERTY
Angle
SciTegic.value.DoubleValue
2.489

@<SCITEGIC>MOL_PROPERTY
Pdih
SciTegic.value.DoubleValue
4.982

@<SCITEGIC>MOL_PROPERTY
Idih
SciTegic.value.DoubleValue
0.001

@<SCITEGIC>MOL_PROPERTY
Tether
SciTegic.value.DoubleValue
0.000

@<TRIPOS>MOLECULE
guest-s21_confgen4.mol2 : confsearch ligand conformer 904
          22          21           1
SMALL
USER_CHARGES
 
@<TRIPOS>ATOM
       1    C1      23.258158   18.213576   20.618658 C.2        1 MOL1         0.6145
       2    O1      24.070336   17.820959   21.432704 O.co2      1 MOL1        -0.6735
       3    O2      23.559092   18.785565   19.589715 O.co2      1 MOL1        -0.6735
       4    C2      21.778660   17.995720   20.915031 C.3        1 MOL1        -0.1985
       5    H1      21.678336   17.061081   21.479869 H          1 MOL1         0.0740
       6    H2      21.256984   17.855361   19.960674 H          1 MOL1         0.0740
       7    C3      21.143925   19.167584   21.703702 C.3        1 MOL1        -0.1882
       8    H3      21.684994   19.303139   22.650495 H          1 MOL1         0.0742
       9    H4      21.264858   20.097588   21.131008 H          1 MOL1         0.0742
      10    C4      19.646567   18.923013   21.990851 C.3        1 MOL1        -0.1880
      11    H5      19.536694   17.988626   22.556550 H          1 MOL1         0.0742
      12    H6      19.107937   18.790106   21.042659 H          1 MOL1         0.0742
      13    C5      19.018628   20.093762   22.781613 C.3        1 MOL1        -0.1880
      14    H7      19.521970   20.196815   23.752676 H          1 MOL1         0.0742
      15    H8      19.198989   21.030522   22.236740 H          1 MOL1         0.0742
      16    C6      17.495843   19.939810   23.002372 C.3        1 MOL1        -0.1856
      17    H9      16.988167   19.842915   22.032740 H          1 MOL1         0.0742
      18    H10     17.111695   20.860412   23.462979 H          1 MOL1         0.0742
      19    C7      17.126820   18.741805   23.903935 C.3        1 MOL1        -0.2871
      20    H11     17.646756   18.801420   24.868947 H          1 MOL1         0.0754
      21    H12     17.388592   17.787726   23.429686 H          1 MOL1         0.0754
      22    H13     16.047226   18.728845   24.101999 H          1 MOL1         0.0754
@<TRIPOS>BOND
    1     1     2    1
    2     1     3    2
    3     1     4    1
    4     4     5    1
    5     4     6    1
    6     4     7    1
    7     7     8    1
    8     7     9    1
    9     7    10    1
   10    10    11    1
   11    10    12    1
   12    10    13    1
   13    13    14    1
   14    13    15    1
   15    13    16    1
   16    16    17    1
   17    16    18    1
   18    16    19    1
   19    19    20    1
   20    19    21    1
   21    19    22    1
@<TRIPOS>SUBSTRUCTURE
       1 MOL1            1 RESIDUE      1      MOL     
@<SCITEGIC>MOL_PROPERTY
VConf Rank
SciTegic.value.IntegerValue
904

@<SCITEGIC>MOL_PROPERTY
Conf_Id
SciTegic.value.IntegerValue
38

@<SCITEGIC>MOL_PROPERTY
Delta U+W
SciTegic.value.DoubleValue
-0.439

@<SCITEGIC>MOL_PROPERTY
U+W
SciTegic.value.DoubleValue
-53.598

@<SCITEGIC>MOL_PROPERTY
Grad RMS
SciTegic.value.DoubleValue
0.000000

@<SCITEGIC>MOL_PROPERTY
U
SciTegic.value.DoubleValue
6.751

@<SCITEGIC>MOL_PROPERTY
W
SciTegic.value.DoubleValue
-60.350

@<SCITEGIC>MOL_PROPERTY
W(PB)
SciTegic.value.DoubleValue
-62.659

@<SCITEGIC>MOL_PROPERTY
W(SA)
SciTegic.value.DoubleValue
2.309

@<SCITEGIC>MOL_PROPERTY
Valence
SciTegic.value.DoubleValue
7.602

@<SCITEGIC>MOL_PROPERTY
Coulomb
SciTegic.value.DoubleValue
-1.744

@<SCITEGIC>MOL_PROPERTY
VdW
SciTegic.value.DoubleValue
0.893

@<SCITEGIC>MOL_PROPERTY
VdW6
SciTegic.value.DoubleValue
-7.110

@<SCITEGIC>MOL_PROPERTY
VdW12
SciTegic.value.DoubleValue
8.004

@<SCITEGIC>MOL_PROPERTY
Bond
SciTegic.value.DoubleValue
0.131

@<SCITEGIC>MOL_PROPERTY
Angle
SciTegic.value.DoubleValue
2.489

@<SCITEGIC>MOL_PROPERTY
Pdih
SciTegic.value.DoubleValue
4.981

@<SCITEGIC>MOL_PROPERTY
Idih
SciTegic.value.DoubleValue
0.001

@<SCITEGIC>MOL_PROPERTY
Tether
SciTegic.value.DoubleValue
0.000

@<TRIPOS>MOLECULE
guest-s21_confgen4.mol2 : confsearch ligand conformer 905
          22          21           1
SMALL
USER_CHARGES
 
@<TRIPOS>ATOM
       1    C1      22.373906   19.022712   19.409887 C.2        1 MOL1         0.6145
       2    O1      23.156468   18.116546   19.202468 O.co2      1 MOL1        -0.6735
       3    O2      22.529508   20.154128   18.994897 O.co2      1 MOL1        -0.6735
       4    C2      21.140439   18.729177   20.256459 C.3        1 MOL1        -0.1985
       5    H1      20.847098   17.687423   20.080061 H          1 MOL1         0.0740
       6    H2      20.326274   19.363509   19.888738 H          1 MOL1         0.0740
       7    C3      21.381296   18.968266   21.769878 C.3        1 MOL1        -0.1882
       8    H3      22.263765   18.391680   22.080110 H          1 MOL1         0.0742
       9    H4      21.626557   20.025619   21.940600 H          1 MOL1         0.0742
      10    C4      20.184856   18.558128   22.661527 C.3        1 MOL1        -0.1880
      11    H5      20.502516   18.629611   23.709530 H          1 MOL1         0.0742
      12    H6      19.936975   17.503103   22.482239 H          1 MOL1         0.0742
      13    C5      18.926926   19.434837   22.444695 C.3        1 MOL1        -0.1880
      14    H7      19.175409   20.490025   22.622277 H          1 MOL1         0.0742
      15    H8      18.606355   19.361913   21.397797 H          1 MOL1         0.0742
      16    C6      17.732827   19.027338   23.339228 C.3        1 MOL1        -0.1856
      17    H9      17.488459   17.969071   23.172954 H          1 MOL1         0.0742
      18    H10     16.849228   19.601841   23.028673 H          1 MOL1         0.0742
      19    C7      17.979604   19.274451   24.843452 C.3        1 MOL1        -0.2871
      20    H11     18.777827   18.629422   25.231010 H          1 MOL1         0.0754
      21    H12     17.071065   19.060502   25.421120 H          1 MOL1         0.0754
      22    H13     18.259598   20.319534   25.029276 H          1 MOL1         0.0754
@<TRIPOS>BOND
    1     1     2    1
    2     1     3    2
    3     1     4    1
    4     4     5    1
    5     4     6    1
    6     4     7    1
    7     7     8    1
    8     7     9    1
    9     7    10    1
   10    10    11    1
   11    10    12    1
   12    10    13    1
   13    13    14    1
   14    13    15    1
   15    13    16    1
   16    16    17    1
   17    16    18    1
   18    16    19    1
   19    19    20    1
   20    19    21    1
   21    19    22    1
@<TRIPOS>SUBSTRUCTURE
       1 MOL1            1 RESIDUE      1      MOL     
@<SCITEGIC>MOL_PROPERTY
VConf Rank
SciTegic.value.IntegerValue
905

@<SCITEGIC>MOL_PROPERTY
Conf_Id
SciTegic.value.IntegerValue
60

@<SCITEGIC>MOL_PROPERTY
Delta U+W
SciTegic.value.DoubleValue
0.386

@<SCITEGIC>MOL_PROPERTY
U+W
SciTegic.value.DoubleValue
-52.773

@<SCITEGIC>MOL_PROPERTY
Grad RMS
SciTegic.value.DoubleValue
0.000000

@<SCITEGIC>MOL_PROPERTY
U
SciTegic.value.DoubleValue
7.689

@<SCITEGIC>MOL_PROPERTY
W
SciTegic.value.DoubleValue
-60.463

@<SCITEGIC>MOL_PROPERTY
W(PB)
SciTegic.value.DoubleValue
-62.772

@<SCITEGIC>MOL_PROPERTY
W(SA)
SciTegic.value.DoubleValue
2.309

@<SCITEGIC>MOL_PROPERTY
Valence
SciTegic.value.DoubleValue
8.197

@<SCITEGIC>MOL_PROPERTY
Coulomb
SciTegic.value.DoubleValue
-1.561

@<SCITEGIC>MOL_PROPERTY
VdW
SciTegic.value.DoubleValue
1.053

@<SCITEGIC>MOL_PROPERTY
VdW6
SciTegic.value.DoubleValue
-7.737

@<SCITEGIC>MOL_PROPERTY
VdW12
SciTegic.value.DoubleValue
8.790

@<SCITEGIC>MOL_PROPERTY
Bond
SciTegic.value.DoubleValue
0.181

@<SCITEGIC>MOL_PROPERTY
Angle
SciTegic.value.DoubleValue
2.780

@<SCITEGIC>MOL_PROPERTY
Pdih
SciTegic.value.DoubleValue
5.235

@<SCITEGIC>MOL_PROPERTY
Idih
SciTegic.value.DoubleValue
0.001

@<SCITEGIC>MOL_PROPERTY
Tether
SciTegic.value.DoubleValue
0.000

@<TRIPOS>MOLECULE
guest-s21_confgen4.mol2 : confsearch ligand conformer 906
          22          21           1
SMALL
USER_CHARGES
 
@<TRIPOS>ATOM
       1    C1      20.080612   15.260482   21.427883 C.2        1 MOL1         0.6145
       2    O1      19.704009   14.602627   22.377584 O.co2      1 MOL1        -0.6735
       3    O2      20.755597   14.810533   20.523172 O.co2      1 MOL1        -0.6735
       4    C2      19.704688   16.737193   21.380008 C.3        1 MOL1        -0.1985
       5    H1      18.719204   16.844609   21.846639 H          1 MOL1         0.0740
       6    H2      19.600463   17.027511   20.327740 H          1 MOL1         0.0740
       7    C3      20.746981   17.644282   22.084584 C.3        1 MOL1        -0.1882
       8    H3      20.807336   17.377072   23.148657 H          1 MOL1         0.0742
       9    H4      21.737871   17.437938   21.656793 H          1 MOL1         0.0742
      10    C4      20.452156   19.156609   21.940823 C.3        1 MOL1        -0.1880
      11    H5      20.384344   19.418706   20.876223 H          1 MOL1         0.0742
      12    H6      21.310394   19.709393   22.343544 H          1 MOL1         0.0742
      13    C5      19.162975   19.604435   22.672589 C.3        1 MOL1        -0.1880
      14    H7      18.303472   19.054721   22.268675 H          1 MOL1         0.0742
      15    H8      19.230130   19.340571   23.736811 H          1 MOL1         0.0742
      16    C6      18.871188   21.116824   22.532403 C.3        1 MOL1        -0.1856
      17    H9      17.879592   21.324111   22.957862 H          1 MOL1         0.0742
      18    H10     18.814667   21.387076   21.468888 H          1 MOL1         0.0742
      19    C7      19.910618   22.011431   23.242275 C.3        1 MOL1        -0.2871
      20    H11     20.009131   21.735775   24.300308 H          1 MOL1         0.0754
      21    H12     19.605782   23.064873   23.194811 H          1 MOL1         0.0754
      22    H13     20.898243   21.931108   22.771564 H          1 MOL1         0.0754
@<TRIPOS>BOND
    1     1     2    1
    2     1     3    2
    3     1     4    1
    4     4     5    1
    5     4     6    1
    6     4     7    1
    7     7     8    1
    8     7     9    1
    9     7    10    1
   10    10    11    1
   11    10    12    1
   12    10    13    1
   13    13    14    1
   14    13    15    1
   15    13    16    1
   16    16    17    1
   17    16    18    1
   18    16    19    1
   19    19    20    1
   20    19    21    1
   21    19    22    1
@<TRIPOS>SUBSTRUCTURE
       1 MOL1            1 RESIDUE      1      MOL     
@<SCITEGIC>MOL_PROPERTY
VConf Rank
SciTegic.value.IntegerValue
906

@<SCITEGIC>MOL_PROPERTY
Conf_Id
SciTegic.value.IntegerValue
28

@<SCITEGIC>MOL_PROPERTY
Delta U+W
SciTegic.value.DoubleValue
0.351

@<SCITEGIC>MOL_PROPERTY
U+W
SciTegic.value.DoubleValue
-52.808

@<SCITEGIC>MOL_PROPERTY
Grad RMS
SciTegic.value.DoubleValue
0.000000

@<SCITEGIC>MOL_PROPERTY
U
SciTegic.value.DoubleValue
7.689

@<SCITEGIC>MOL_PROPERTY
W
SciTegic.value.DoubleValue
-60.498

@<SCITEGIC>MOL_PROPERTY
W(PB)
SciTegic.value.DoubleValue
-62.768

@<SCITEGIC>MOL_PROPERTY
W(SA)
SciTegic.value.DoubleValue
2.270

@<SCITEGIC>MOL_PROPERTY
Valence
SciTegic.value.DoubleValue
8.197

@<SCITEGIC>MOL_PROPERTY
Coulomb
SciTegic.value.DoubleValue
-1.561

@<SCITEGIC>MOL_PROPERTY
VdW
SciTegic.value.DoubleValue
1.053

@<SCITEGIC>MOL_PROPERTY
VdW6
SciTegic.value.DoubleValue
-7.737

@<SCITEGIC>MOL_PROPERTY
VdW12
SciTegic.value.DoubleValue
8.791

@<SCITEGIC>MOL_PROPERTY
Bond
SciTegic.value.DoubleValue
0.181

@<SCITEGIC>MOL_PROPERTY
Angle
SciTegic.value.DoubleValue
2.780

@<SCITEGIC>MOL_PROPERTY
Pdih
SciTegic.value.DoubleValue
5.235

@<SCITEGIC>MOL_PROPERTY
Idih
SciTegic.value.DoubleValue
0.001

@<SCITEGIC>MOL_PROPERTY
Tether
SciTegic.value.DoubleValue
0.000

@<TRIPOS>MOLECULE
guest-s21_confgen4.mol2 : confsearch ligand conformer 907
          22          21           1
SMALL
USER_CHARGES
 
@<TRIPOS>ATOM
       1    C1      22.433545   21.513477   23.118098 C.2        1 MOL1         0.6145
       2    O1      23.397209   21.158590   23.767620 O.co2      1 MOL1        -0.6735
       3    O2      22.501594   22.276742   22.175097 O.co2      1 MOL1        -0.6735
       4    C2      21.066049   20.954561   23.494778 C.3        1 MOL1        -0.1985
       5    H1      20.311575   21.716941   23.266313 H          1 MOL1         0.0740
       6    H2      21.049761   20.797015   24.579919 H          1 MOL1         0.0740
       7    C3      20.731679   19.634588   22.757110 C.3        1 MOL1        -0.1882
       8    H3      20.774105   19.812914   21.674582 H          1 MOL1         0.0742
       9    H4      21.500665   18.884776   22.988942 H          1 MOL1         0.0742
      10    C4      19.338662   19.093172   23.153890 C.3        1 MOL1        -0.1880
      11    H5      18.564521   19.820708   22.873914 H          1 MOL1         0.0742
      12    H6      19.292094   18.994945   24.247116 H          1 MOL1         0.0742
      13    C5      19.009412   17.718806   22.524387 C.3        1 MOL1        -0.1880
      14    H7      19.781152   16.989954   22.807449 H          1 MOL1         0.0742
      15    H8      18.066428   17.355610   22.955428 H          1 MOL1         0.0742
      16    C6      18.873197   17.762191   20.985603 C.3        1 MOL1        -0.1856
      17    H9      19.829752   18.048030   20.528812 H          1 MOL1         0.0742
      18    H10     18.139371   18.528397   20.699886 H          1 MOL1         0.0742
      19    C7      18.435154   16.396951   20.418196 C.3        1 MOL1        -0.2871
      20    H11     17.460737   16.096268   20.824961 H          1 MOL1         0.0754
      21    H12     19.166118   15.616187   20.666160 H          1 MOL1         0.0754
      22    H13     18.346118   16.443065   19.325029 H          1 MOL1         0.0754
@<TRIPOS>BOND
    1     1     2    1
    2     1     3    2
    3     1     4    1
    4     4     5    1
    5     4     6    1
    6     4     7    1
    7     7     8    1
    8     7     9    1
    9     7    10    1
   10    10    11    1
   11    10    12    1
   12    10    13    1
   13    13    14    1
   14    13    15    1
   15    13    16    1
   16    16    17    1
   17    16    18    1
   18    16    19    1
   19    19    20    1
   20    19    21    1
   21    19    22    1
@<TRIPOS>SUBSTRUCTURE
       1 MOL1            1 RESIDUE      1      MOL     
@<SCITEGIC>MOL_PROPERTY
VConf Rank
SciTegic.value.IntegerValue
907

@<SCITEGIC>MOL_PROPERTY
Conf_Id
SciTegic.value.IntegerValue
50

@<SCITEGIC>MOL_PROPERTY
Delta U+W
SciTegic.value.DoubleValue
-0.486

@<SCITEGIC>MOL_PROPERTY
U+W
SciTegic.value.DoubleValue
-53.646

@<SCITEGIC>MOL_PROPERTY
Grad RMS
SciTegic.value.DoubleValue
0.000000

@<SCITEGIC>MOL_PROPERTY
U
SciTegic.value.DoubleValue
7.026

@<SCITEGIC>MOL_PROPERTY
W
SciTegic.value.DoubleValue
-60.672

@<SCITEGIC>MOL_PROPERTY
W(PB)
SciTegic.value.DoubleValue
-62.964

@<SCITEGIC>MOL_PROPERTY
W(SA)
SciTegic.value.DoubleValue
2.292

@<SCITEGIC>MOL_PROPERTY
Valence
SciTegic.value.DoubleValue
7.637

@<SCITEGIC>MOL_PROPERTY
Coulomb
SciTegic.value.DoubleValue
-1.488

@<SCITEGIC>MOL_PROPERTY
VdW
SciTegic.value.DoubleValue
0.877

@<SCITEGIC>MOL_PROPERTY
VdW6
SciTegic.value.DoubleValue
-7.165

@<SCITEGIC>MOL_PROPERTY
VdW12
SciTegic.value.DoubleValue
8.043

@<SCITEGIC>MOL_PROPERTY
Bond
SciTegic.value.DoubleValue
0.134

@<SCITEGIC>MOL_PROPERTY
Angle
SciTegic.value.DoubleValue
2.513

@<SCITEGIC>MOL_PROPERTY
Pdih
SciTegic.value.DoubleValue
4.990

@<SCITEGIC>MOL_PROPERTY
Idih
SciTegic.value.DoubleValue
0.001

@<SCITEGIC>MOL_PROPERTY
Tether
SciTegic.value.DoubleValue
0.000

@<TRIPOS>MOLECULE
guest-s21_confgen4.mol2 : confsearch ligand conformer 908
          22          21           1
SMALL
USER_CHARGES
 
@<TRIPOS>ATOM
       1    C1      20.368597   19.598959   25.897160 C.2        1 MOL1         0.6145
       2    O1      21.339598   19.052036   26.381418 O.co2      1 MOL1        -0.6735
       3    O2      19.288115   19.664689   26.449150 O.co2      1 MOL1        -0.6735
       4    C2      20.508121   20.219219   24.511469 C.3        1 MOL1        -0.1985
       5    H1      21.535656   20.587287   24.405105 H          1 MOL1         0.0740
       6    H2      19.844406   21.090688   24.459774 H          1 MOL1         0.0740
       7    C3      20.174634   19.225726   23.371269 C.3        1 MOL1        -0.1882
       8    H3      20.841282   18.355185   23.442277 H          1 MOL1         0.0742
       9    H4      19.149984   18.856851   23.510885 H          1 MOL1         0.0742
      10    C4      20.319802   19.881791   21.978584 C.3        1 MOL1        -0.1880
      11    H5      21.327112   20.311186   21.889643 H          1 MOL1         0.0742
      12    H6      19.615472   20.720101   21.888341 H          1 MOL1         0.0742
      13    C5      20.103024   18.895056   20.806867 C.3        1 MOL1        -0.1880
      14    H7      20.347225   19.410708   19.868040 H          1 MOL1         0.0742
      15    H8      20.809836   18.058596   20.894522 H          1 MOL1         0.0742
      16    C6      18.659522   18.350260   20.718614 C.3        1 MOL1        -0.1856
      17    H9      17.948809   19.187461   20.684144 H          1 MOL1         0.0742
      18    H10     18.420837   17.763609   21.615403 H          1 MOL1         0.0742
      19    C7      18.465588   17.462474   19.472844 C.3        1 MOL1        -0.2871
      20    H11     19.146055   16.601162   19.495042 H          1 MOL1         0.0754
      21    H12     18.658877   18.028737   18.552332 H          1 MOL1         0.0754
      22    H13     17.437316   17.080975   19.426112 H          1 MOL1         0.0754
@<TRIPOS>BOND
    1     1     2    1
    2     1     3    2
    3     1     4    1
    4     4     5    1
    5     4     6    1
    6     4     7    1
    7     7     8    1
    8     7     9    1
    9     7    10    1
   10    10    11    1
   11    10    12    1
   12    10    13    1
   13    13    14    1
   14    13    15    1
   15    13    16    1
   16    16    17    1
   17    16    18    1
   18    16    19    1
   19    19    20    1
   20    19    21    1
   21    19    22    1
@<TRIPOS>SUBSTRUCTURE
       1 MOL1            1 RESIDUE      1      MOL     
@<SCITEGIC>MOL_PROPERTY
VConf Rank
SciTegic.value.IntegerValue
908

@<SCITEGIC>MOL_PROPERTY
Conf_Id
SciTegic.value.IntegerValue
51

@<SCITEGIC>MOL_PROPERTY
Delta U+W
SciTegic.value.DoubleValue
-0.517

@<SCITEGIC>MOL_PROPERTY
U+W
SciTegic.value.DoubleValue
-53.677

@<SCITEGIC>MOL_PROPERTY
Grad RMS
SciTegic.value.DoubleValue
0.000000

@<SCITEGIC>MOL_PROPERTY
U
SciTegic.value.DoubleValue
7.026

@<SCITEGIC>MOL_PROPERTY
W
SciTegic.value.DoubleValue
-60.703

@<SCITEGIC>MOL_PROPERTY
W(PB)
SciTegic.value.DoubleValue
-63.007

@<SCITEGIC>MOL_PROPERTY
W(SA)
SciTegic.value.DoubleValue
2.304

@<SCITEGIC>MOL_PROPERTY
Valence
SciTegic.value.DoubleValue
7.638

@<SCITEGIC>MOL_PROPERTY
Coulomb
SciTegic.value.DoubleValue
-1.488

@<SCITEGIC>MOL_PROPERTY
VdW
SciTegic.value.DoubleValue
0.877

@<SCITEGIC>MOL_PROPERTY
VdW6
SciTegic.value.DoubleValue
-7.165

@<SCITEGIC>MOL_PROPERTY
VdW12
SciTegic.value.DoubleValue
8.042

@<SCITEGIC>MOL_PROPERTY
Bond
SciTegic.value.DoubleValue
0.134

@<SCITEGIC>MOL_PROPERTY
Angle
SciTegic.value.DoubleValue
2.513

@<SCITEGIC>MOL_PROPERTY
Pdih
SciTegic.value.DoubleValue
4.990

@<SCITEGIC>MOL_PROPERTY
Idih
SciTegic.value.DoubleValue
0.001

@<SCITEGIC>MOL_PROPERTY
Tether
SciTegic.value.DoubleValue
0.000

@<TRIPOS>MOLECULE
guest-s21_confgen4.mol2 : confsearch ligand conformer 909
          22          21           1
SMALL
USER_CHARGES
 
@<TRIPOS>ATOM
       1    C1      21.842026   18.643132   19.440384 C.2        1 MOL1         0.6145
       2    O1      21.215927   18.181114   18.506874 O.co2      1 MOL1        -0.6735
       3    O2      22.315747   19.762223   19.444077 O.co2      1 MOL1        -0.6735
       4    C2      22.060251   17.761045   20.666531 C.3        1 MOL1        -0.1985
       5    H1      22.899504   18.166393   21.244678 H          1 MOL1         0.0740
       6    H2      22.369954   16.772241   20.308211 H          1 MOL1         0.0740
       7    C3      20.808182   17.615786   21.569976 C.3        1 MOL1        -0.1882
       8    H3      19.969105   17.235685   20.970705 H          1 MOL1         0.0742
       9    H4      21.011754   16.862138   22.342709 H          1 MOL1         0.0742
      10    C4      20.407208   18.945097   22.248017 C.3        1 MOL1        -0.1880
      11    H5      20.185219   19.699711   21.480758 H          1 MOL1         0.0742
      12    H6      21.253494   19.327467   22.835051 H          1 MOL1         0.0742
      13    C5      19.178566   18.770616   23.166410 C.3        1 MOL1        -0.1880
      14    H7      18.332721   18.388261   22.578652 H          1 MOL1         0.0742
      15    H8      19.399082   18.018522   23.936335 H          1 MOL1         0.0742
      16    C6      18.777060   20.097896   23.843290 C.3        1 MOL1        -0.1856
      17    H9      18.553961   20.852262   23.076048 H          1 MOL1         0.0742
      18    H10     19.620271   20.482621   24.433582 H          1 MOL1         0.0742
      19    C7      17.549450   19.919903   24.759068 C.3        1 MOL1        -0.2871
      20    H11     16.681410   19.565511   24.187829 H          1 MOL1         0.0754
      21    H12     17.278013   20.872782   25.231752 H          1 MOL1         0.0754
      22    H13     17.755729   19.193020   25.555613 H          1 MOL1         0.0754
@<TRIPOS>BOND
    1     1     2    1
    2     1     3    2
    3     1     4    1
    4     4     5    1
    5     4     6    1
    6     4     7    1
    7     7     8    1
    8     7     9    1
    9     7    10    1
   10    10    11    1
   11    10    12    1
   12    10    13    1
   13    13    14    1
   14    13    15    1
   15    13    16    1
   16    16    17    1
   17    16    18    1
   18    16    19    1
   19    19    20    1
   20    19    21    1
   21    19    22    1
@<TRIPOS>SUBSTRUCTURE
       1 MOL1            1 RESIDUE      1      MOL     
@<SCITEGIC>MOL_PROPERTY
VConf Rank
SciTegic.value.IntegerValue
909

@<SCITEGIC>MOL_PROPERTY
Conf_Id
SciTegic.value.IntegerValue
43

@<SCITEGIC>MOL_PROPERTY
Delta U+W
SciTegic.value.DoubleValue
-0.129

@<SCITEGIC>MOL_PROPERTY
U+W
SciTegic.value.DoubleValue
-53.289

@<SCITEGIC>MOL_PROPERTY
Grad RMS
SciTegic.value.DoubleValue
0.000000

@<SCITEGIC>MOL_PROPERTY
U
SciTegic.value.DoubleValue
7.937

@<SCITEGIC>MOL_PROPERTY
W
SciTegic.value.DoubleValue
-61.225

@<SCITEGIC>MOL_PROPERTY
W(PB)
SciTegic.value.DoubleValue
-63.523

@<SCITEGIC>MOL_PROPERTY
W(SA)
SciTegic.value.DoubleValue
2.297

@<SCITEGIC>MOL_PROPERTY
Valence
SciTegic.value.DoubleValue
7.358

@<SCITEGIC>MOL_PROPERTY
Coulomb
SciTegic.value.DoubleValue
-0.022

@<SCITEGIC>MOL_PROPERTY
VdW
SciTegic.value.DoubleValue
0.601

@<SCITEGIC>MOL_PROPERTY
VdW6
SciTegic.value.DoubleValue
-7.363

@<SCITEGIC>MOL_PROPERTY
VdW12
SciTegic.value.DoubleValue
7.964

@<SCITEGIC>MOL_PROPERTY
Bond
SciTegic.value.DoubleValue
0.121

@<SCITEGIC>MOL_PROPERTY
Angle
SciTegic.value.DoubleValue
2.425

@<SCITEGIC>MOL_PROPERTY
Pdih
SciTegic.value.DoubleValue
4.811

@<SCITEGIC>MOL_PROPERTY
Idih
SciTegic.value.DoubleValue
0.000

@<SCITEGIC>MOL_PROPERTY
Tether
SciTegic.value.DoubleValue
0.000

@<TRIPOS>MOLECULE
guest-s21_confgen4.mol2 : confsearch ligand conformer 910
          22          21           1
SMALL
USER_CHARGES
 
@<TRIPOS>ATOM
       1    C1      16.235397   18.890486   22.428335 C.2        1 MOL1         0.6145
       2    O1      15.703848   19.966783   22.617922 O.co2      1 MOL1        -0.6735
       3    O2      16.124827   17.943897   23.182349 O.co2      1 MOL1        -0.6735
       4    C2      17.072115   18.714614   21.164175 C.3        1 MOL1        -0.1985
       5    H1      16.497057   19.132625   20.329540 H          1 MOL1         0.0740
       6    H2      17.185619   17.641933   20.965741 H          1 MOL1         0.0740
       7    C3      18.462999   19.397502   21.228242 C.3        1 MOL1        -0.1882
       8    H3      18.934418   19.339607   20.237811 H          1 MOL1         0.0742
       9    H4      18.334209   20.464975   21.455328 H          1 MOL1         0.0742
      10    C4      19.395963   18.748552   22.275157 C.3        1 MOL1        -0.1880
      11    H5      19.510913   17.679102   22.051380 H          1 MOL1         0.0742
      12    H6      18.938672   18.817856   23.271897 H          1 MOL1         0.0742
      13    C5      20.784403   19.423150   22.299842 C.3        1 MOL1        -0.1880
      14    H7      21.245001   19.352641   21.304887 H          1 MOL1         0.0742
      15    H8      20.668611   20.492533   22.523723 H          1 MOL1         0.0742
      16    C6      21.716418   18.776104   23.345657 C.3        1 MOL1        -0.1856
      17    H9      21.835970   17.706516   23.123958 H          1 MOL1         0.0742
      18    H10     21.259686   18.846375   24.342633 H          1 MOL1         0.0742
      19    C7      23.101710   19.452736   23.367871 C.3        1 MOL1        -0.2871
      20    H11     23.595127   19.369668   22.390612 H          1 MOL1         0.0754
      21    H12     23.750950   18.980496   24.116577 H          1 MOL1         0.0754
      22    H13     23.014473   20.518088   23.618505 H          1 MOL1         0.0754
@<TRIPOS>BOND
    1     1     2    1
    2     1     3    2
    3     1     4    1
    4     4     5    1
    5     4     6    1
    6     4     7    1
    7     7     8    1
    8     7     9    1
    9     7    10    1
   10    10    11    1
   11    10    12    1
   12    10    13    1
   13    13    14    1
   14    13    15    1
   15    13    16    1
   16    16    17    1
   17    16    18    1
   18    16    19    1
   19    19    20    1
   20    19    21    1
   21    19    22    1
@<TRIPOS>SUBSTRUCTURE
       1 MOL1            1 RESIDUE      1      MOL     
@<SCITEGIC>MOL_PROPERTY
VConf Rank
SciTegic.value.IntegerValue
910

@<SCITEGIC>MOL_PROPERTY
Conf_Id
SciTegic.value.IntegerValue
44

@<SCITEGIC>MOL_PROPERTY
Delta U+W
SciTegic.value.DoubleValue
-0.155

@<SCITEGIC>MOL_PROPERTY
U+W
SciTegic.value.DoubleValue
-53.314

@<SCITEGIC>MOL_PROPERTY
Grad RMS
SciTegic.value.DoubleValue
0.000000

@<SCITEGIC>MOL_PROPERTY
U
SciTegic.value.DoubleValue
7.937

@<SCITEGIC>MOL_PROPERTY
W
SciTegic.value.DoubleValue
-61.252

@<SCITEGIC>MOL_PROPERTY
W(PB)
SciTegic.value.DoubleValue
-63.556

@<SCITEGIC>MOL_PROPERTY
W(SA)
SciTegic.value.DoubleValue
2.304

@<SCITEGIC>MOL_PROPERTY
Valence
SciTegic.value.DoubleValue
7.358

@<SCITEGIC>MOL_PROPERTY
Coulomb
SciTegic.value.DoubleValue
-0.021

@<SCITEGIC>MOL_PROPERTY
VdW
SciTegic.value.DoubleValue
0.600

@<SCITEGIC>MOL_PROPERTY
VdW6
SciTegic.value.DoubleValue
-7.363

@<SCITEGIC>MOL_PROPERTY
VdW12
SciTegic.value.DoubleValue
7.964

@<SCITEGIC>MOL_PROPERTY
Bond
SciTegic.value.DoubleValue
0.121

@<SCITEGIC>MOL_PROPERTY
Angle
SciTegic.value.DoubleValue
2.425

@<SCITEGIC>MOL_PROPERTY
Pdih
SciTegic.value.DoubleValue
4.811

@<SCITEGIC>MOL_PROPERTY
Idih
SciTegic.value.DoubleValue
0.001

@<SCITEGIC>MOL_PROPERTY
Tether
SciTegic.value.DoubleValue
0.000

@<TRIPOS>MOLECULE
guest-s21_confgen4.mol2 : confsearch ligand conformer 911
          22          21           1
SMALL
USER_CHARGES
 
@<TRIPOS>ATOM
       1    C1      19.357005   20.539784   25.479208 C.2        1 MOL1         0.6145
       2    O1      18.334402   21.193830   25.537774 O.co2      1 MOL1        -0.6735
       3    O2      20.445596   20.962727   25.815299 O.co2      1 MOL1        -0.6735
       4    C2      19.263652   19.102748   24.973716 C.3        1 MOL1        -0.1985
       5    H1      18.409784   18.633998   25.476920 H          1 MOL1         0.0740
       6    H2      20.159755   18.558714   25.296074 H          1 MOL1         0.0740
       7    C3      19.088318   18.982662   23.437336 C.3        1 MOL1        -0.1882
       8    H3      18.876513   17.934075   23.192860 H          1 MOL1         0.0742
       9    H4      18.210719   19.565315   23.124705 H          1 MOL1         0.0742
      10    C4      20.338301   19.457610   22.658119 C.3        1 MOL1        -0.1880
      11    H5      21.205964   18.846064   22.940915 H          1 MOL1         0.0742
      12    H6      20.577246   20.488341   22.953905 H          1 MOL1         0.0742
      13    C5      20.157592   19.422504   21.121911 C.3        1 MOL1        -0.1880
      14    H7      19.289681   20.034012   20.839589 H          1 MOL1         0.0742
      15    H8      21.034205   19.895221   20.658238 H          1 MOL1         0.0742
      16    C6      19.997834   17.995291   20.550976 C.3        1 MOL1        -0.1856
      17    H9      19.081601   17.532116   20.939822 H          1 MOL1         0.0742
      18    H10     20.838632   17.368628   20.878918 H          1 MOL1         0.0742
      19    C7      19.938192   18.006375   19.010178 C.3        1 MOL1        -0.2871
      20    H11     19.089029   18.604646   18.654682 H          1 MOL1         0.0754
      21    H12     19.821390   16.986847   18.620327 H          1 MOL1         0.0754
      22    H13     20.857647   18.428646   18.583977 H          1 MOL1         0.0754
@<TRIPOS>BOND
    1     1     2    1
    2     1     3    2
    3     1     4    1
    4     4     5    1
    5     4     6    1
    6     4     7    1
    7     7     8    1
    8     7     9    1
    9     7    10    1
   10    10    11    1
   11    10    12    1
   12    10    13    1
   13    13    14    1
   14    13    15    1
   15    13    16    1
   16    16    17    1
   17    16    18    1
   18    16    19    1
   19    19    20    1
   20    19    21    1
   21    19    22    1
@<TRIPOS>SUBSTRUCTURE
       1 MOL1            1 RESIDUE      1      MOL     
@<SCITEGIC>MOL_PROPERTY
VConf Rank
SciTegic.value.IntegerValue
911

@<SCITEGIC>MOL_PROPERTY
Conf_Id
SciTegic.value.IntegerValue
53

@<SCITEGIC>MOL_PROPERTY
Delta U+W
SciTegic.value.DoubleValue
0.723

@<SCITEGIC>MOL_PROPERTY
U+W
SciTegic.value.DoubleValue
-52.436

@<SCITEGIC>MOL_PROPERTY
Grad RMS
SciTegic.value.DoubleValue
0.000000

@<SCITEGIC>MOL_PROPERTY
U
SciTegic.value.DoubleValue
8.587

@<SCITEGIC>MOL_PROPERTY
W
SciTegic.value.DoubleValue
-61.022

@<SCITEGIC>MOL_PROPERTY
W(PB)
SciTegic.value.DoubleValue
-63.285

@<SCITEGIC>MOL_PROPERTY
W(SA)
SciTegic.value.DoubleValue
2.263

@<SCITEGIC>MOL_PROPERTY
Valence
SciTegic.value.DoubleValue
7.933

@<SCITEGIC>MOL_PROPERTY
Coulomb
SciTegic.value.DoubleValue
-0.124

@<SCITEGIC>MOL_PROPERTY
VdW
SciTegic.value.DoubleValue
0.778

@<SCITEGIC>MOL_PROPERTY
VdW6
SciTegic.value.DoubleValue
-7.981

@<SCITEGIC>MOL_PROPERTY
VdW12
SciTegic.value.DoubleValue
8.759

@<SCITEGIC>MOL_PROPERTY
Bond
SciTegic.value.DoubleValue
0.160

@<SCITEGIC>MOL_PROPERTY
Angle
SciTegic.value.DoubleValue
2.698

@<SCITEGIC>MOL_PROPERTY
Pdih
SciTegic.value.DoubleValue
5.074

@<SCITEGIC>MOL_PROPERTY
Idih
SciTegic.value.DoubleValue
0.001

@<SCITEGIC>MOL_PROPERTY
Tether
SciTegic.value.DoubleValue
0.000

@<TRIPOS>MOLECULE
guest-s21_confgen4.mol2 : confsearch ligand conformer 912
          22          21           1
SMALL
USER_CHARGES
 
@<TRIPOS>ATOM
       1    C1      20.154681   15.665415   22.370689 C.2        1 MOL1         0.6145
       2    O1      20.008534   15.257772   23.506046 O.co2      1 MOL1        -0.6735
       3    O2      20.334445   14.939125   21.413207 O.co2      1 MOL1        -0.6735
       4    C2      20.086647   17.169334   22.130688 C.3        1 MOL1        -0.1985
       5    H1      20.736813   17.408825   21.280859 H          1 MOL1         0.0740
       6    H2      20.502310   17.664952   23.015174 H          1 MOL1         0.0740
       7    C3      18.645062   17.669455   21.860784 C.3        1 MOL1        -0.1882
       8    H3      18.205726   17.060480   21.058565 H          1 MOL1         0.0742
       9    H4      18.028569   17.493151   22.753033 H          1 MOL1         0.0742
      10    C4      18.552438   19.161093   21.452001 C.3        1 MOL1        -0.1880
      11    H5      17.496714   19.381378   21.242559 H          1 MOL1         0.0742
      12    H6      19.085016   19.326841   20.505511 H          1 MOL1         0.0742
      13    C5      19.048599   20.158018   22.529811 C.3        1 MOL1        -0.1880
      14    H7      18.408682   21.050522   22.499210 H          1 MOL1         0.0742
      15    H8      18.921290   19.725212   23.531526 H          1 MOL1         0.0742
      16    C6      20.512503   20.609337   22.319928 C.3        1 MOL1        -0.1856
      17    H9      20.611033   21.091587   21.337624 H          1 MOL1         0.0742
      18    H10     21.186413   19.744368   22.313642 H          1 MOL1         0.0742
      19    C7      20.963274   21.594108   23.417362 C.3        1 MOL1        -0.2871
      20    H11     20.331946   22.492286   23.423133 H          1 MOL1         0.0754
      21    H12     22.001170   21.910396   23.250726 H          1 MOL1         0.0754
      22    H13     20.906125   21.128213   24.409850 H          1 MOL1         0.0754
@<TRIPOS>BOND
    1     1     2    1
    2     1     3    2
    3     1     4    1
    4     4     5    1
    5     4     6    1
    6     4     7    1
    7     7     8    1
    8     7     9    1
    9     7    10    1
   10    10    11    1
   11    10    12    1
   12    10    13    1
   13    13    14    1
   14    13    15    1
   15    13    16    1
   16    16    17    1
   17    16    18    1
   18    16    19    1
   19    19    20    1
   20    19    21    1
   21    19    22    1
@<TRIPOS>SUBSTRUCTURE
       1 MOL1            1 RESIDUE      1      MOL     
@<SCITEGIC>MOL_PROPERTY
VConf Rank
SciTegic.value.IntegerValue
912

@<SCITEGIC>MOL_PROPERTY
Conf_Id
SciTegic.value.IntegerValue
5

@<SCITEGIC>MOL_PROPERTY
Delta U+W
SciTegic.value.DoubleValue
2.167

@<SCITEGIC>MOL_PROPERTY
U+W
SciTegic.value.DoubleValue
-50.993

@<SCITEGIC>MOL_PROPERTY
Grad RMS
SciTegic.value.DoubleValue
0.000000

@<SCITEGIC>MOL_PROPERTY
U
SciTegic.value.DoubleValue
10.045

@<SCITEGIC>MOL_PROPERTY
W
SciTegic.value.DoubleValue
-61.037

@<SCITEGIC>MOL_PROPERTY
W(PB)
SciTegic.value.DoubleValue
-63.303

@<SCITEGIC>MOL_PROPERTY
W(SA)
SciTegic.value.DoubleValue
2.266

@<SCITEGIC>MOL_PROPERTY
Valence
SciTegic.value.DoubleValue
10.100

@<SCITEGIC>MOL_PROPERTY
Coulomb
SciTegic.value.DoubleValue
-0.883

@<SCITEGIC>MOL_PROPERTY
VdW
SciTegic.value.DoubleValue
0.828

@<SCITEGIC>MOL_PROPERTY
VdW6
SciTegic.value.DoubleValue
-8.177

@<SCITEGIC>MOL_PROPERTY
VdW12
SciTegic.value.DoubleValue
9.005

@<SCITEGIC>MOL_PROPERTY
Bond
SciTegic.value.DoubleValue
0.182

@<SCITEGIC>MOL_PROPERTY
Angle
SciTegic.value.DoubleValue
2.988

@<SCITEGIC>MOL_PROPERTY
Pdih
SciTegic.value.DoubleValue
6.930

@<SCITEGIC>MOL_PROPERTY
Idih
SciTegic.value.DoubleValue
0.001

@<SCITEGIC>MOL_PROPERTY
Tether
SciTegic.value.DoubleValue
0.000

@<TRIPOS>MOLECULE
guest-s21_confgen4.mol2 : confsearch ligand conformer 913
          22          21           1
SMALL
USER_CHARGES
 
@<TRIPOS>ATOM
       1    C1      17.987032   21.664315   22.287008 C.2        1 MOL1         0.6145
       2    O1      16.823553   21.352774   22.447714 O.co2      1 MOL1        -0.6735
       3    O2      18.354135   22.800618   22.061985 O.co2      1 MOL1        -0.6735
       4    C2      19.042233   20.565776   22.348357 C.3        1 MOL1        -0.1985
       5    H1      18.705018   19.823211   23.080213 H          1 MOL1         0.0740
       6    H2      19.971651   21.006482   22.728146 H          1 MOL1         0.0740
       7    C3      19.289636   19.893727   20.974208 C.3        1 MOL1        -0.1882
       8    H3      18.369513   19.389713   20.647714 H          1 MOL1         0.0742
       9    H4      19.491258   20.677136   20.230541 H          1 MOL1         0.0742
      10    C4      20.467041   18.886683   20.958344 C.3        1 MOL1        -0.1880
      11    H5      21.408955   19.403602   21.187572 H          1 MOL1         0.0742
      12    H6      20.572381   18.517657   19.928941 H          1 MOL1         0.0742
      13    C5      20.283605   17.663963   21.892698 C.3        1 MOL1        -0.1880
      14    H7      19.214743   17.448101   22.026492 H          1 MOL1         0.0742
      15    H8      20.713943   16.781550   21.399594 H          1 MOL1         0.0742
      16    C6      20.975282   17.832091   23.265313 C.3        1 MOL1        -0.1856
      17    H9      20.596331   18.721563   23.782614 H          1 MOL1         0.0742
      18    H10     22.052459   17.989876   23.117033 H          1 MOL1         0.0742
      19    C7      20.761069   16.595800   24.161434 C.3        1 MOL1        -0.2871
      20    H11     19.692781   16.431497   24.354110 H          1 MOL1         0.0754
      21    H12     21.263544   16.727277   25.128525 H          1 MOL1         0.0754
      22    H13     21.167308   15.692163   23.688419 H          1 MOL1         0.0754
@<TRIPOS>BOND
    1     1     2    1
    2     1     3    2
    3     1     4    1
    4     4     5    1
    5     4     6    1
    6     4     7    1
    7     7     8    1
    8     7     9    1
    9     7    10    1
   10    10    11    1
   11    10    12    1
   12    10    13    1
   13    13    14    1
   14    13    15    1
   15    13    16    1
   16    16    17    1
   17    16    18    1
   18    16    19    1
   19    19    20    1
   20    19    21    1
   21    19    22    1
@<TRIPOS>SUBSTRUCTURE
       1 MOL1            1 RESIDUE      1      MOL     
@<SCITEGIC>MOL_PROPERTY
VConf Rank
SciTegic.value.IntegerValue
913

@<SCITEGIC>MOL_PROPERTY
Conf_Id
SciTegic.value.IntegerValue
6

@<SCITEGIC>MOL_PROPERTY
Delta U+W
SciTegic.value.DoubleValue
2.118

@<SCITEGIC>MOL_PROPERTY
U+W
SciTegic.value.DoubleValue
-51.042

@<SCITEGIC>MOL_PROPERTY
Grad RMS
SciTegic.value.DoubleValue
0.000000

@<SCITEGIC>MOL_PROPERTY
U
SciTegic.value.DoubleValue
10.045

@<SCITEGIC>MOL_PROPERTY
W
SciTegic.value.DoubleValue
-61.086

@<SCITEGIC>MOL_PROPERTY
W(PB)
SciTegic.value.DoubleValue
-63.356

@<SCITEGIC>MOL_PROPERTY
W(SA)
SciTegic.value.DoubleValue
2.270

@<SCITEGIC>MOL_PROPERTY
Valence
SciTegic.value.DoubleValue
10.100

@<SCITEGIC>MOL_PROPERTY
Coulomb
SciTegic.value.DoubleValue
-0.883

@<SCITEGIC>MOL_PROPERTY
VdW
SciTegic.value.DoubleValue
0.828

@<SCITEGIC>MOL_PROPERTY
VdW6
SciTegic.value.DoubleValue
-8.177

@<SCITEGIC>MOL_PROPERTY
VdW12
SciTegic.value.DoubleValue
9.004

@<SCITEGIC>MOL_PROPERTY
Bond
SciTegic.value.DoubleValue
0.182

@<SCITEGIC>MOL_PROPERTY
Angle
SciTegic.value.DoubleValue
2.988

@<SCITEGIC>MOL_PROPERTY
Pdih
SciTegic.value.DoubleValue
6.930

@<SCITEGIC>MOL_PROPERTY
Idih
SciTegic.value.DoubleValue
0.001

@<SCITEGIC>MOL_PROPERTY
Tether
SciTegic.value.DoubleValue
0.000

@<TRIPOS>MOLECULE
guest-s21_confgen4.mol2 : confsearch ligand conformer 914
          22          21           1
SMALL
USER_CHARGES
 
@<TRIPOS>ATOM
       1    C1      18.121366   18.963655   24.845899 C.2        1 MOL1         0.6145
       2    O1      17.313489   19.863309   24.721592 O.co2      1 MOL1        -0.6735
       3    O2      19.044938   18.996552   25.635194 O.co2      1 MOL1        -0.6735
       4    C2      17.926602   17.694628   24.018194 C.3        1 MOL1        -0.1985
       5    H1      16.970774   17.262787   24.336685 H          1 MOL1         0.0740
       6    H2      18.703928   16.969707   24.288556 H          1 MOL1         0.0740
       7    C3      17.898316   17.904486   22.477986 C.3        1 MOL1        -0.1882
       8    H3      17.400496   17.035604   22.026721 H          1 MOL1         0.0742
       9    H4      17.273075   18.773388   22.229681 H          1 MOL1         0.0742
      10    C4      19.291402   18.046011   21.816023 C.3        1 MOL1        -0.1880
      11    H5      19.154886   18.031575   20.726009 H          1 MOL1         0.0742
      12    H6      19.907948   17.170516   22.061396 H          1 MOL1         0.0742
      13    C5      20.045582   19.337806   22.204595 C.3        1 MOL1        -0.1880
      14    H7      19.390276   20.206886   22.055197 H          1 MOL1         0.0742
      15    H8      20.306451   19.311348   23.270104 H          1 MOL1         0.0742
      16    C6      21.336570   19.515327   21.377684 C.3        1 MOL1        -0.1856
      17    H9      21.090020   19.552541   20.307551 H          1 MOL1         0.0742
      18    H10     21.992302   18.645950   21.524700 H          1 MOL1         0.0742
      19    C7      22.092119   20.799854   21.773351 C.3        1 MOL1        -0.2871
      20    H11     21.469388   21.688562   21.606693 H          1 MOL1         0.0754
      21    H12     23.007207   20.910049   21.177117 H          1 MOL1         0.0754
      22    H13     22.378347   20.775990   22.833071 H          1 MOL1         0.0754
@<TRIPOS>BOND
    1     1     2    1
    2     1     3    2
    3     1     4    1
    4     4     5    1
    5     4     6    1
    6     4     7    1
    7     7     8    1
    8     7     9    1
    9     7    10    1
   10    10    11    1
   11    10    12    1
   12    10    13    1
   13    13    14    1
   14    13    15    1
   15    13    16    1
   16    16    17    1
   17    16    18    1
   18    16    19    1
   19    19    20    1
   20    19    21    1
   21    19    22    1
@<TRIPOS>SUBSTRUCTURE
       1 MOL1            1 RESIDUE      1      MOL     
@<SCITEGIC>MOL_PROPERTY
VConf Rank
SciTegic.value.IntegerValue
914

@<SCITEGIC>MOL_PROPERTY
Conf_Id
SciTegic.value.IntegerValue
8

@<SCITEGIC>MOL_PROPERTY
Delta U+W
SciTegic.value.DoubleValue
1.886

@<SCITEGIC>MOL_PROPERTY
U+W
SciTegic.value.DoubleValue
-51.274

@<SCITEGIC>MOL_PROPERTY
Grad RMS
SciTegic.value.DoubleValue
0.000000

@<SCITEGIC>MOL_PROPERTY
U
SciTegic.value.DoubleValue
11.237

@<SCITEGIC>MOL_PROPERTY
W
SciTegic.value.DoubleValue
-62.510

@<SCITEGIC>MOL_PROPERTY
W(PB)
SciTegic.value.DoubleValue
-64.777

@<SCITEGIC>MOL_PROPERTY
W(SA)
SciTegic.value.DoubleValue
2.267

@<SCITEGIC>MOL_PROPERTY
Valence
SciTegic.value.DoubleValue
9.029

@<SCITEGIC>MOL_PROPERTY
Coulomb
SciTegic.value.DoubleValue
1.667

@<SCITEGIC>MOL_PROPERTY
VdW
SciTegic.value.DoubleValue
0.540

@<SCITEGIC>MOL_PROPERTY
VdW6
SciTegic.value.DoubleValue
-8.825

@<SCITEGIC>MOL_PROPERTY
VdW12
SciTegic.value.DoubleValue
9.365

@<SCITEGIC>MOL_PROPERTY
Bond
SciTegic.value.DoubleValue
0.186

@<SCITEGIC>MOL_PROPERTY
Angle
SciTegic.value.DoubleValue
3.195

@<SCITEGIC>MOL_PROPERTY
Pdih
SciTegic.value.DoubleValue
5.642

@<SCITEGIC>MOL_PROPERTY
Idih
SciTegic.value.DoubleValue
0.007

@<SCITEGIC>MOL_PROPERTY
Tether
SciTegic.value.DoubleValue
0.000

@<TRIPOS>MOLECULE
guest-s21_confgen4.mol2 : confsearch ligand conformer 915
          22          21           1
SMALL
USER_CHARGES
 
@<TRIPOS>ATOM
       1    C1      22.051259   17.049481   21.867204 C.2        1 MOL1         0.6145
       2    O1      22.400291   17.143083   23.027454 O.co2      1 MOL1        -0.6735
       3    O2      22.814108   17.146780   20.925981 O.co2      1 MOL1        -0.6735
       4    C2      20.580813   16.764426   21.574462 C.3        1 MOL1        -0.1985
       5    H1      20.096397   16.431697   22.499308 H          1 MOL1         0.0740
       6    H2      20.545596   15.913617   20.884094 H          1 MOL1         0.0740
       7    C3      19.812925   17.962320   20.951128 C.3        1 MOL1        -0.1882
       8    H3      20.279202   18.215026   19.988813 H          1 MOL1         0.0742
       9    H4      18.784763   17.651416   20.721884 H          1 MOL1         0.0742
      10    C4      19.775838   19.234311   21.833961 C.3        1 MOL1        -0.1880
      11    H5      19.295457   20.033560   21.255663 H          1 MOL1         0.0742
      12    H6      20.800428   19.573433   22.039230 H          1 MOL1         0.0742
      13    C5      19.017362   19.035931   23.169178 C.3        1 MOL1        -0.1880
      14    H7      17.998437   18.677902   22.968930 H          1 MOL1         0.0742
      15    H8      19.515528   18.253340   23.755961 H          1 MOL1         0.0742
      16    C6      18.955991   20.314947   24.036562 C.3        1 MOL1        -0.1856
      17    H9      19.973637   20.683908   24.225348 H          1 MOL1         0.0742
      18    H10     18.534189   20.054220   25.017011 H          1 MOL1         0.0742
      19    C7      18.100717   21.439776   23.413604 C.3        1 MOL1        -0.2871
      20    H11     18.549880   21.820599   22.488090 H          1 MOL1         0.0754
      21    H12     18.011326   22.283573   24.109961 H          1 MOL1         0.0754
      22    H13     17.088360   21.082485   23.184311 H          1 MOL1         0.0754
@<TRIPOS>BOND
    1     1     2    1
    2     1     3    2
    3     1     4    1
    4     4     5    1
    5     4     6    1
    6     4     7    1
    7     7     8    1
    8     7     9    1
    9     7    10    1
   10    10    11    1
   11    10    12    1
   12    10    13    1
   13    13    14    1
   14    13    15    1
   15    13    16    1
   16    16    17    1
   17    16    18    1
   18    16    19    1
   19    19    20    1
   20    19    21    1
   21    19    22    1
@<TRIPOS>SUBSTRUCTURE
       1 MOL1            1 RESIDUE      1      MOL     
@<SCITEGIC>MOL_PROPERTY
VConf Rank
SciTegic.value.IntegerValue
915

@<SCITEGIC>MOL_PROPERTY
Conf_Id
SciTegic.value.IntegerValue
93

@<SCITEGIC>MOL_PROPERTY
Delta U+W
SciTegic.value.DoubleValue
1.836

@<SCITEGIC>MOL_PROPERTY
U+W
SciTegic.value.DoubleValue
-51.323

@<SCITEGIC>MOL_PROPERTY
Grad RMS
SciTegic.value.DoubleValue
0.000000

@<SCITEGIC>MOL_PROPERTY
U
SciTegic.value.DoubleValue
10.427

@<SCITEGIC>MOL_PROPERTY
W
SciTegic.value.DoubleValue
-61.751

@<SCITEGIC>MOL_PROPERTY
W(PB)
SciTegic.value.DoubleValue
-63.980

@<SCITEGIC>MOL_PROPERTY
W(SA)
SciTegic.value.DoubleValue
2.230

@<SCITEGIC>MOL_PROPERTY
Valence
SciTegic.value.DoubleValue
8.446

@<SCITEGIC>MOL_PROPERTY
Coulomb
SciTegic.value.DoubleValue
1.306

@<SCITEGIC>MOL_PROPERTY
VdW
SciTegic.value.DoubleValue
0.676

@<SCITEGIC>MOL_PROPERTY
VdW6
SciTegic.value.DoubleValue
-8.928

@<SCITEGIC>MOL_PROPERTY
VdW12
SciTegic.value.DoubleValue
9.604

@<SCITEGIC>MOL_PROPERTY
Bond
SciTegic.value.DoubleValue
0.209

@<SCITEGIC>MOL_PROPERTY
Angle
SciTegic.value.DoubleValue
3.066

@<SCITEGIC>MOL_PROPERTY
Pdih
SciTegic.value.DoubleValue
5.170

@<SCITEGIC>MOL_PROPERTY
Idih
SciTegic.value.DoubleValue
0.001

@<SCITEGIC>MOL_PROPERTY
Tether
SciTegic.value.DoubleValue
0.000

@<TRIPOS>MOLECULE
guest-s21_confgen4.mol2 : confsearch ligand conformer 916
          22          21           1
SMALL
USER_CHARGES
 
@<TRIPOS>ATOM
       1    C1      21.897896   21.198961   21.783220 C.2        1 MOL1         0.6145
       2    O1      22.960015   21.313141   22.363022 O.co2      1 MOL1        -0.6735
       3    O2      21.049419   22.068560   21.757699 O.co2      1 MOL1        -0.6735
       4    C2      21.630124   19.903860   21.021528 C.3        1 MOL1        -0.1985
       5    H1      22.504603   19.711765   20.388986 H          1 MOL1         0.0740
       6    H2      20.786314   20.064316   20.341126 H          1 MOL1         0.0740
       7    C3      21.375918   18.671533   21.932516 C.3        1 MOL1        -0.1882
       8    H3      21.250516   17.778994   21.304838 H          1 MOL1         0.0742
       9    H4      22.273105   18.494995   22.541792 H          1 MOL1         0.0742
      10    C4      20.154568   18.807325   22.875170 C.3        1 MOL1        -0.1880
      11    H5      20.287852   19.677822   23.531978 H          1 MOL1         0.0742
      12    H6      20.132595   17.926675   23.529361 H          1 MOL1         0.0742
      13    C5      18.806062   18.925765   22.123540 C.3        1 MOL1        -0.1880
      14    H7      18.822251   19.821648   21.489452 H          1 MOL1         0.0742
      15    H8      18.678087   18.066946   21.450824 H          1 MOL1         0.0742
      16    C6      17.584678   19.031883   23.066382 C.3        1 MOL1        -0.1856
      17    H9      16.694200   19.256606   22.463286 H          1 MOL1         0.0742
      18    H10     17.717573   19.881076   23.750919 H          1 MOL1         0.0742
      19    C7      17.320567   17.744612   23.877546 C.3        1 MOL1        -0.2871
      20    H11     18.132210   17.543228   24.587497 H          1 MOL1         0.0754
      21    H12     17.219007   16.875973   23.214032 H          1 MOL1         0.0754
      22    H13     16.391618   17.839127   24.454624 H          1 MOL1         0.0754
@<TRIPOS>BOND
    1     1     2    1
    2     1     3    2
    3     1     4    1
    4     4     5    1
    5     4     6    1
    6     4     7    1
    7     7     8    1
    8     7     9    1
    9     7    10    1
   10    10    11    1
   11    10    12    1
   12    10    13    1
   13    13    14    1
   14    13    15    1
   15    13    16    1
   16    16    17    1
   17    16    18    1
   18    16    19    1
   19    19    20    1
   20    19    21    1
   21    19    22    1
@<TRIPOS>SUBSTRUCTURE
       1 MOL1            1 RESIDUE      1      MOL     
@<SCITEGIC>MOL_PROPERTY
VConf Rank
SciTegic.value.IntegerValue
916

@<SCITEGIC>MOL_PROPERTY
Conf_Id
SciTegic.value.IntegerValue
70

@<SCITEGIC>MOL_PROPERTY
Delta U+W
SciTegic.value.DoubleValue
1.803

@<SCITEGIC>MOL_PROPERTY
U+W
SciTegic.value.DoubleValue
-51.356

@<SCITEGIC>MOL_PROPERTY
Grad RMS
SciTegic.value.DoubleValue
0.000000

@<SCITEGIC>MOL_PROPERTY
U
SciTegic.value.DoubleValue
10.428

@<SCITEGIC>MOL_PROPERTY
W
SciTegic.value.DoubleValue
-61.784

@<SCITEGIC>MOL_PROPERTY
W(PB)
SciTegic.value.DoubleValue
-64.014

@<SCITEGIC>MOL_PROPERTY
W(SA)
SciTegic.value.DoubleValue
2.230

@<SCITEGIC>MOL_PROPERTY
Valence
SciTegic.value.DoubleValue
8.445

@<SCITEGIC>MOL_PROPERTY
Coulomb
SciTegic.value.DoubleValue
1.306

@<SCITEGIC>MOL_PROPERTY
VdW
SciTegic.value.DoubleValue
0.676

@<SCITEGIC>MOL_PROPERTY
VdW6
SciTegic.value.DoubleValue
-8.929

@<SCITEGIC>MOL_PROPERTY
VdW12
SciTegic.value.DoubleValue
9.605

@<SCITEGIC>MOL_PROPERTY
Bond
SciTegic.value.DoubleValue
0.209

@<SCITEGIC>MOL_PROPERTY
Angle
SciTegic.value.DoubleValue
3.066

@<SCITEGIC>MOL_PROPERTY
Pdih
SciTegic.value.DoubleValue
5.170

@<SCITEGIC>MOL_PROPERTY
Idih
SciTegic.value.DoubleValue
0.001

@<SCITEGIC>MOL_PROPERTY
Tether
SciTegic.value.DoubleValue
0.000

@<TRIPOS>MOLECULE
guest-s21_confgen4.mol2 : confsearch ligand conformer 917
          22          21           1
SMALL
USER_CHARGES
 
@<TRIPOS>ATOM
       1    C1      21.382206   20.550094   24.811999 C.2        1 MOL1         0.6145
       2    O1      20.517079   20.907544   25.587046 O.co2      1 MOL1        -0.6735
       3    O2      22.182570   21.308675   24.301263 O.co2      1 MOL1        -0.6735
       4    C2      21.480360   19.063825   24.479634 C.3        1 MOL1        -0.1985
       5    H1      21.393528   18.510137   25.421934 H          1 MOL1         0.0740
       6    H2      22.482035   18.859241   24.082606 H          1 MOL1         0.0740
       7    C3      20.397849   18.568081   23.485959 C.3        1 MOL1        -0.1882
       8    H3      20.460508   17.474450   23.406517 H          1 MOL1         0.0742
       9    H4      19.406049   18.800865   23.895563 H          1 MOL1         0.0742
      10    C4      20.555725   19.192385   22.078875 C.3        1 MOL1        -0.1880
      11    H5      21.582211   19.022568   21.726272 H          1 MOL1         0.0742
      12    H6      20.425222   20.281824   22.137142 H          1 MOL1         0.0742
      13    C5      19.574633   18.611091   21.033369 C.3        1 MOL1        -0.1880
      14    H7      19.837341   19.016495   20.046697 H          1 MOL1         0.0742
      15    H8      19.708617   17.522704   20.967584 H          1 MOL1         0.0742
      16    C6      18.093643   18.936877   21.331197 C.3        1 MOL1        -0.1856
      17    H9      17.969629   20.022192   21.449437 H          1 MOL1         0.0742
      18    H10     17.787597   18.474272   22.278663 H          1 MOL1         0.0742
      19    C7      17.166826   18.434949   20.205670 C.3        1 MOL1        -0.2871
      20    H11     17.419975   18.907590   19.247611 H          1 MOL1         0.0754
      21    H12     16.119185   18.670923   20.433322 H          1 MOL1         0.0754
      22    H13     17.250662   17.347015   20.084246 H          1 MOL1         0.0754
@<TRIPOS>BOND
    1     1     2    1
    2     1     3    2
    3     1     4    1
    4     4     5    1
    5     4     6    1
    6     4     7    1
    7     7     8    1
    8     7     9    1
    9     7    10    1
   10    10    11    1
   11    10    12    1
   12    10    13    1
   13    13    14    1
   14    13    15    1
   15    13    16    1
   16    16    17    1
   17    16    18    1
   18    16    19    1
   19    19    20    1
   20    19    21    1
   21    19    22    1
@<TRIPOS>SUBSTRUCTURE
       1 MOL1            1 RESIDUE      1      MOL     
@<SCITEGIC>MOL_PROPERTY
VConf Rank
SciTegic.value.IntegerValue
917

@<SCITEGIC>MOL_PROPERTY
Conf_Id
SciTegic.value.IntegerValue
85

@<SCITEGIC>MOL_PROPERTY
Delta U+W
SciTegic.value.DoubleValue
0.707

@<SCITEGIC>MOL_PROPERTY
U+W
SciTegic.value.DoubleValue
-52.452

@<SCITEGIC>MOL_PROPERTY
Grad RMS
SciTegic.value.DoubleValue
0.000000

@<SCITEGIC>MOL_PROPERTY
U
SciTegic.value.DoubleValue
8.925

@<SCITEGIC>MOL_PROPERTY
W
SciTegic.value.DoubleValue
-61.378

@<SCITEGIC>MOL_PROPERTY
W(PB)
SciTegic.value.DoubleValue
-63.661

@<SCITEGIC>MOL_PROPERTY
W(SA)
SciTegic.value.DoubleValue
2.283

@<SCITEGIC>MOL_PROPERTY
Valence
SciTegic.value.DoubleValue
7.881

@<SCITEGIC>MOL_PROPERTY
Coulomb
SciTegic.value.DoubleValue
0.349

@<SCITEGIC>MOL_PROPERTY
VdW
SciTegic.value.DoubleValue
0.695

@<SCITEGIC>MOL_PROPERTY
VdW6
SciTegic.value.DoubleValue
-8.049

@<SCITEGIC>MOL_PROPERTY
VdW12
SciTegic.value.DoubleValue
8.743

@<SCITEGIC>MOL_PROPERTY
Bond
SciTegic.value.DoubleValue
0.156

@<SCITEGIC>MOL_PROPERTY
Angle
SciTegic.value.DoubleValue
2.660

@<SCITEGIC>MOL_PROPERTY
Pdih
SciTegic.value.DoubleValue
5.064

@<SCITEGIC>MOL_PROPERTY
Idih
SciTegic.value.DoubleValue
0.001

@<SCITEGIC>MOL_PROPERTY
Tether
SciTegic.value.DoubleValue
0.000

@<TRIPOS>MOLECULE
guest-s21_confgen4.mol2 : confsearch ligand conformer 918
          22          21           1
SMALL
USER_CHARGES
 
@<TRIPOS>ATOM
       1    C1      21.578923   18.915621   25.242813 C.2        1 MOL1         0.6145
       2    O1      22.600910   19.568424   25.163243 O.co2      1 MOL1        -0.6735
       3    O2      20.787837   19.014782   26.160050 O.co2      1 MOL1        -0.6735
       4    C2      21.282468   17.898774   24.143935 C.3        1 MOL1        -0.1985
       5    H1      20.979213   16.966520   24.634780 H          1 MOL1         0.0740
       6    H2      22.212502   17.684948   23.603408 H          1 MOL1         0.0740
       7    C3      20.176606   18.343634   23.151536 C.3        1 MOL1        -0.1882
       8    H3      19.929363   17.491964   22.505443 H          1 MOL1         0.0742
       9    H4      19.265911   18.599637   23.710442 H          1 MOL1         0.0742
      10    C4      20.610398   19.541294   22.274885 C.3        1 MOL1        -0.1880
      11    H5      21.469526   19.248276   21.656225 H          1 MOL1         0.0742
      12    H6      20.963323   20.354344   22.923912 H          1 MOL1         0.0742
      13    C5      19.488772   20.103668   21.365922 C.3        1 MOL1        -0.1880
      14    H7      18.662168   20.485571   21.980579 H          1 MOL1         0.0742
      15    H8      19.897524   20.977442   20.840271 H          1 MOL1         0.0742
      16    C6      18.953919   19.110059   20.304520 C.3        1 MOL1        -0.1856
      17    H9      19.732188   18.381922   20.037455 H          1 MOL1         0.0742
      18    H10     18.728430   19.666877   19.384516 H          1 MOL1         0.0742
      19    C7      17.666321   18.380248   20.747800 C.3        1 MOL1        -0.2871
      20    H11     17.824042   17.789451   21.657188 H          1 MOL1         0.0754
      21    H12     17.321476   17.697781   19.960310 H          1 MOL1         0.0754
      22    H13     16.859900   19.098109   20.946414 H          1 MOL1         0.0754
@<TRIPOS>BOND
    1     1     2    1
    2     1     3    2
    3     1     4    1
    4     4     5    1
    5     4     6    1
    6     4     7    1
    7     7     8    1
    8     7     9    1
    9     7    10    1
   10    10    11    1
   11    10    12    1
   12    10    13    1
   13    13    14    1
   14    13    15    1
   15    13    16    1
   16    16    17    1
   17    16    18    1
   18    16    19    1
   19    19    20    1
   20    19    21    1
   21    19    22    1
@<TRIPOS>SUBSTRUCTURE
       1 MOL1            1 RESIDUE      1      MOL     
@<SCITEGIC>MOL_PROPERTY
VConf Rank
SciTegic.value.IntegerValue
918

@<SCITEGIC>MOL_PROPERTY
Conf_Id
SciTegic.value.IntegerValue
82

@<SCITEGIC>MOL_PROPERTY
Delta U+W
SciTegic.value.DoubleValue
3.438

@<SCITEGIC>MOL_PROPERTY
U+W
SciTegic.value.DoubleValue
-49.721

@<SCITEGIC>MOL_PROPERTY
Grad RMS
SciTegic.value.DoubleValue
0.000000

@<SCITEGIC>MOL_PROPERTY
U
SciTegic.value.DoubleValue
11.773

@<SCITEGIC>MOL_PROPERTY
W
SciTegic.value.DoubleValue
-61.495

@<SCITEGIC>MOL_PROPERTY
W(PB)
SciTegic.value.DoubleValue
-63.749

@<SCITEGIC>MOL_PROPERTY
W(SA)
SciTegic.value.DoubleValue
2.254

@<SCITEGIC>MOL_PROPERTY
Valence
SciTegic.value.DoubleValue
10.419

@<SCITEGIC>MOL_PROPERTY
Coulomb
SciTegic.value.DoubleValue
0.565

@<SCITEGIC>MOL_PROPERTY
VdW
SciTegic.value.DoubleValue
0.789

@<SCITEGIC>MOL_PROPERTY
VdW6
SciTegic.value.DoubleValue
-8.847

@<SCITEGIC>MOL_PROPERTY
VdW12
SciTegic.value.DoubleValue
9.636

@<SCITEGIC>MOL_PROPERTY
Bond
SciTegic.value.DoubleValue
0.200

@<SCITEGIC>MOL_PROPERTY
Angle
SciTegic.value.DoubleValue
3.187

@<SCITEGIC>MOL_PROPERTY
Pdih
SciTegic.value.DoubleValue
7.032

@<SCITEGIC>MOL_PROPERTY
Idih
SciTegic.value.DoubleValue
0.001

@<SCITEGIC>MOL_PROPERTY
Tether
SciTegic.value.DoubleValue
0.000

@<TRIPOS>MOLECULE
guest-s21_confgen4.mol2 : confsearch ligand conformer 919
          22          21           1
SMALL
USER_CHARGES
 
@<TRIPOS>ATOM
       1    C1      20.205519   15.626344   22.944586 C.2        1 MOL1         0.6145
       2    O1      19.187294   15.244958   23.487479 O.co2      1 MOL1        -0.6735
       3    O2      20.735142   15.039698   22.021392 O.co2      1 MOL1        -0.6735
       4    C2      20.866157   16.898998   23.467375 C.3        1 MOL1        -0.1985
       5    H1      21.909313   16.917322   23.129222 H          1 MOL1         0.0740
       6    H2      20.888374   16.829780   24.561316 H          1 MOL1         0.0740
       7    C3      20.143994   18.205655   23.046878 C.3        1 MOL1        -0.1882
       8    H3      19.089178   18.153677   23.350092 H          1 MOL1         0.0742
       9    H4      20.595933   19.041833   23.595023 H          1 MOL1         0.0742
      10    C4      20.242290   18.477563   21.527837 C.3        1 MOL1        -0.1880
      11    H5      19.891750   17.592540   20.979479 H          1 MOL1         0.0742
      12    H6      21.296103   18.613239   21.248966 H          1 MOL1         0.0742
      13    C5      19.420251   19.699143   21.045633 C.3        1 MOL1        -0.1880
      14    H7      19.522878   19.755092   19.953294 H          1 MOL1         0.0742
      15    H8      18.351234   19.532450   21.236271 H          1 MOL1         0.0742
      16    C6      19.866281   21.057868   21.641301 C.3        1 MOL1        -0.1856
      17    H9      19.763389   21.831132   20.867495 H          1 MOL1         0.0742
      18    H10     20.933050   21.027832   21.902666 H          1 MOL1         0.0742
      19    C7      19.026817   21.491857   22.863586 C.3        1 MOL1        -0.2871
      20    H11     17.968106   21.595576   22.592551 H          1 MOL1         0.0754
      21    H12     19.372885   22.462422   23.241817 H          1 MOL1         0.0754
      22    H13     19.096030   20.768904   23.684228 H          1 MOL1         0.0754
@<TRIPOS>BOND
    1     1     2    1
    2     1     3    2
    3     1     4    1
    4     4     5    1
    5     4     6    1
    6     4     7    1
    7     7     8    1
    8     7     9    1
    9     7    10    1
   10    10    11    1
   11    10    12    1
   12    10    13    1
   13    13    14    1
   14    13    15    1
   15    13    16    1
   16    16    17    1
   17    16    18    1
   18    16    19    1
   19    19    20    1
   20    19    21    1
   21    19    22    1
@<TRIPOS>SUBSTRUCTURE
       1 MOL1            1 RESIDUE      1      MOL     
@<SCITEGIC>MOL_PROPERTY
VConf Rank
SciTegic.value.IntegerValue
919

@<SCITEGIC>MOL_PROPERTY
Conf_Id
SciTegic.value.IntegerValue
94

@<SCITEGIC>MOL_PROPERTY
Delta U+W
SciTegic.value.DoubleValue
3.471

@<SCITEGIC>MOL_PROPERTY
U+W
SciTegic.value.DoubleValue
-49.688

@<SCITEGIC>MOL_PROPERTY
Grad RMS
SciTegic.value.DoubleValue
0.000000

@<SCITEGIC>MOL_PROPERTY
U
SciTegic.value.DoubleValue
11.773

@<SCITEGIC>MOL_PROPERTY
W
SciTegic.value.DoubleValue
-61.461

@<SCITEGIC>MOL_PROPERTY
W(PB)
SciTegic.value.DoubleValue
-63.710

@<SCITEGIC>MOL_PROPERTY
W(SA)
SciTegic.value.DoubleValue
2.248

@<SCITEGIC>MOL_PROPERTY
Valence
SciTegic.value.DoubleValue
10.419

@<SCITEGIC>MOL_PROPERTY
Coulomb
SciTegic.value.DoubleValue
0.566

@<SCITEGIC>MOL_PROPERTY
VdW
SciTegic.value.DoubleValue
0.789

@<SCITEGIC>MOL_PROPERTY
VdW6
SciTegic.value.DoubleValue
-8.847

@<SCITEGIC>MOL_PROPERTY
VdW12
SciTegic.value.DoubleValue
9.636

@<SCITEGIC>MOL_PROPERTY
Bond
SciTegic.value.DoubleValue
0.200

@<SCITEGIC>MOL_PROPERTY
Angle
SciTegic.value.DoubleValue
3.187

@<SCITEGIC>MOL_PROPERTY
Pdih
SciTegic.value.DoubleValue
7.032

@<SCITEGIC>MOL_PROPERTY
Idih
SciTegic.value.DoubleValue
0.001

@<SCITEGIC>MOL_PROPERTY
Tether
SciTegic.value.DoubleValue
0.000

@<TRIPOS>MOLECULE
guest-s21_confgen4.mol2 : confsearch ligand conformer 920
          22          21           1
SMALL
USER_CHARGES
 
@<TRIPOS>ATOM
       1    C1      16.697401   19.210084   23.504815 C.2        1 MOL1         0.6145
       2    O1      15.733490   18.492585   23.323793 O.co2      1 MOL1        -0.6735
       3    O2      16.615537   20.397942   23.747436 O.co2      1 MOL1        -0.6735
       4    C2      18.085991   18.589327   23.402777 C.3        1 MOL1        -0.1985
       5    H1      18.021590   17.550751   23.748384 H          1 MOL1         0.0740
       6    H2      18.742582   19.124180   24.098375 H          1 MOL1         0.0740
       7    C3      18.661574   18.639536   21.963805 C.3        1 MOL1        -0.1882
       8    H3      17.942695   18.168414   21.279439 H          1 MOL1         0.0742
       9    H4      18.749378   19.684916   21.639312 H          1 MOL1         0.0742
      10    C4      20.026148   17.920362   21.818405 C.3        1 MOL1        -0.1880
      11    H5      20.335943   17.956071   20.765682 H          1 MOL1         0.0742
      12    H6      19.892225   16.855575   22.052580 H          1 MOL1         0.0742
      13    C5      21.166963   18.482599   22.706998 C.3        1 MOL1        -0.1880
      14    H7      20.929686   18.298450   23.762953 H          1 MOL1         0.0742
      15    H8      22.082293   17.910009   22.504871 H          1 MOL1         0.0742
      16    C6      21.469354   19.989266   22.516093 C.3        1 MOL1        -0.1856
      17    H9      22.270037   20.276644   23.211240 H          1 MOL1         0.0742
      18    H10     20.593492   20.589330   22.796791 H          1 MOL1         0.0742
      19    C7      21.907077   20.346135   21.079135 C.3        1 MOL1        -0.2871
      20    H11     22.772657   19.745185   20.771591 H          1 MOL1         0.0754
      21    H12     22.189643   21.404820   21.015209 H          1 MOL1         0.0754
      22    H13     21.095407   20.174185   20.361096 H          1 MOL1         0.0754
@<TRIPOS>BOND
    1     1     2    1
    2     1     3    2
    3     1     4    1
    4     4     5    1
    5     4     6    1
    6     4     7    1
    7     7     8    1
    8     7     9    1
    9     7    10    1
   10    10    11    1
   11    10    12    1
   12    10    13    1
   13    13    14    1
   14    13    15    1
   15    13    16    1
   16    16    17    1
   17    16    18    1
   18    16    19    1
   19    19    20    1
   20    19    21    1
   21    19    22    1
@<TRIPOS>SUBSTRUCTURE
       1 MOL1            1 RESIDUE      1      MOL     
@<SCITEGIC>MOL_PROPERTY
VConf Rank
SciTegic.value.IntegerValue
920

@<SCITEGIC>MOL_PROPERTY
Conf_Id
SciTegic.value.IntegerValue
56

@<SCITEGIC>MOL_PROPERTY
Delta U+W
SciTegic.value.DoubleValue
0.853

@<SCITEGIC>MOL_PROPERTY
U+W
SciTegic.value.DoubleValue
-52.307

@<SCITEGIC>MOL_PROPERTY
Grad RMS
SciTegic.value.DoubleValue
0.000000

@<SCITEGIC>MOL_PROPERTY
U
SciTegic.value.DoubleValue
8.874

@<SCITEGIC>MOL_PROPERTY
W
SciTegic.value.DoubleValue
-61.181

@<SCITEGIC>MOL_PROPERTY
W(PB)
SciTegic.value.DoubleValue
-63.413

@<SCITEGIC>MOL_PROPERTY
W(SA)
SciTegic.value.DoubleValue
2.232

@<SCITEGIC>MOL_PROPERTY
Valence
SciTegic.value.DoubleValue
8.479

@<SCITEGIC>MOL_PROPERTY
Coulomb
SciTegic.value.DoubleValue
-0.357

@<SCITEGIC>MOL_PROPERTY
VdW
SciTegic.value.DoubleValue
0.753

@<SCITEGIC>MOL_PROPERTY
VdW6
SciTegic.value.DoubleValue
-9.081

@<SCITEGIC>MOL_PROPERTY
VdW12
SciTegic.value.DoubleValue
9.833

@<SCITEGIC>MOL_PROPERTY
Bond
SciTegic.value.DoubleValue
0.221

@<SCITEGIC>MOL_PROPERTY
Angle
SciTegic.value.DoubleValue
3.208

@<SCITEGIC>MOL_PROPERTY
Pdih
SciTegic.value.DoubleValue
5.050

@<SCITEGIC>MOL_PROPERTY
Idih
SciTegic.value.DoubleValue
0.000

@<SCITEGIC>MOL_PROPERTY
Tether
SciTegic.value.DoubleValue
0.000

@<TRIPOS>MOLECULE
guest-s21_confgen4.mol2 : confsearch ligand conformer 921
          22          21           1
SMALL
USER_CHARGES
 
@<TRIPOS>ATOM
       1    C1      15.935067   20.048842   22.449570 C.2        1 MOL1         0.6145
       2    O1      15.899151   19.841511   23.647119 O.co2      1 MOL1        -0.6735
       3    O2      14.978118   20.447931   21.816406 O.co2      1 MOL1        -0.6735
       4    C2      17.231585   19.804849   21.675595 C.3        1 MOL1        -0.1985
       5    H1      17.501410   20.747110   21.184365 H          1 MOL1         0.0740
       6    H2      17.007733   19.081968   20.882310 H          1 MOL1         0.0740
       7    C3      18.425609   19.296482   22.526641 C.3        1 MOL1        -0.1882
       8    H3      18.640572   20.022239   23.323232 H          1 MOL1         0.0742
       9    H4      18.146528   18.355497   23.020757 H          1 MOL1         0.0742
      10    C4      19.690445   19.077329   21.668344 C.3        1 MOL1        -0.1880
      11    H5      19.967477   20.019343   21.175401 H          1 MOL1         0.0742
      12    H6      19.473062   18.351569   20.872637 H          1 MOL1         0.0742
      13    C5      20.876881   18.571574   22.516806 C.3        1 MOL1        -0.1880
      14    H7      21.094611   19.297004   23.312716 H          1 MOL1         0.0742
      15    H8      20.600318   17.629522   23.009937 H          1 MOL1         0.0742
      16    C6      22.141206   18.352416   21.659744 C.3        1 MOL1        -0.1856
      17    H9      22.422131   19.293272   21.166442 H          1 MOL1         0.0742
      18    H10     21.927783   17.625746   20.863581 H          1 MOL1         0.0742
      19    C7      23.323621   17.847327   22.510693 C.3        1 MOL1        -0.2871
      20    H11     23.579265   18.570384   23.296341 H          1 MOL1         0.0754
      21    H12     24.213594   17.697018   21.885835 H          1 MOL1         0.0754
      22    H13     23.081241   16.890342   22.991149 H          1 MOL1         0.0754
@<TRIPOS>BOND
    1     1     2    1
    2     1     3    2
    3     1     4    1
    4     4     5    1
    5     4     6    1
    6     4     7    1
    7     7     8    1
    8     7     9    1
    9     7    10    1
   10    10    11    1
   11    10    12    1
   12    10    13    1
   13    13    14    1
   14    13    15    1
   15    13    16    1
   16    16    17    1
   17    16    18    1
   18    16    19    1
   19    19    20    1
   20    19    21    1
   21    19    22    1
@<TRIPOS>SUBSTRUCTURE
       1 MOL1            1 RESIDUE      1      MOL     
@<SCITEGIC>MOL_PROPERTY
VConf Rank
SciTegic.value.IntegerValue
921

@<SCITEGIC>MOL_PROPERTY
Conf_Id
SciTegic.value.IntegerValue
0

@<SCITEGIC>MOL_PROPERTY
Delta U+W
SciTegic.value.DoubleValue
0.000

@<SCITEGIC>MOL_PROPERTY
U+W
SciTegic.value.DoubleValue
-53.159

@<SCITEGIC>MOL_PROPERTY
Grad RMS
SciTegic.value.DoubleValue
0.000000

@<SCITEGIC>MOL_PROPERTY
U
SciTegic.value.DoubleValue
6.763

@<SCITEGIC>MOL_PROPERTY
W
SciTegic.value.DoubleValue
-59.922

@<SCITEGIC>MOL_PROPERTY
W(PB)
SciTegic.value.DoubleValue
-62.256

@<SCITEGIC>MOL_PROPERTY
W(SA)
SciTegic.value.DoubleValue
2.334

@<SCITEGIC>MOL_PROPERTY
Valence
SciTegic.value.DoubleValue
7.600

@<SCITEGIC>MOL_PROPERTY
Coulomb
SciTegic.value.DoubleValue
-2.139

@<SCITEGIC>MOL_PROPERTY
VdW
SciTegic.value.DoubleValue
1.302

@<SCITEGIC>MOL_PROPERTY
VdW6
SciTegic.value.DoubleValue
-6.786

@<SCITEGIC>MOL_PROPERTY
VdW12
SciTegic.value.DoubleValue
8.088

@<SCITEGIC>MOL_PROPERTY
Bond
SciTegic.value.DoubleValue
0.134

@<SCITEGIC>MOL_PROPERTY
Angle
SciTegic.value.DoubleValue
2.720

@<SCITEGIC>MOL_PROPERTY
Pdih
SciTegic.value.DoubleValue
4.746

@<SCITEGIC>MOL_PROPERTY
Idih
SciTegic.value.DoubleValue
0.000

@<SCITEGIC>MOL_PROPERTY
Tether
SciTegic.value.DoubleValue
0.000

@<TRIPOS>MOLECULE
guest-s21_confgen4.mol2 : confsearch ligand conformer 922
          22          21           1
SMALL
USER_CHARGES
 
@<TRIPOS>ATOM
       1    C1      17.068005   17.255380   19.767900 C.2        1 MOL1         0.6145
       2    O1      16.986216   17.755190   18.663395 O.co2      1 MOL1        -0.6735
       3    O2      16.124961   16.764044   20.355851 O.co2      1 MOL1        -0.6735
       4    C2      18.424336   17.265352   20.463947 C.3        1 MOL1        -0.1985
       5    H1      19.202373   17.184642   19.695307 H          1 MOL1         0.0740
       6    H2      18.492657   16.367516   21.089954 H          1 MOL1         0.0740
       7    C3      18.650725   18.534082   21.322504 C.3        1 MOL1        -0.1882
       8    H3      18.566166   19.424299   20.683804 H          1 MOL1         0.0742
       9    H4      17.856473   18.607197   22.078409 H          1 MOL1         0.0742
      10    C4      20.030010   18.520144   22.016231 C.3        1 MOL1        -0.1880
      11    H5      20.821603   18.445753   21.257929 H          1 MOL1         0.0742
      12    H6      20.111746   17.628411   22.652866 H          1 MOL1         0.0742
      13    C5      20.252839   19.786013   22.871342 C.3        1 MOL1        -0.1880
      14    H7      20.171170   20.677979   22.235061 H          1 MOL1         0.0742
      15    H8      19.461432   19.860777   23.629769 H          1 MOL1         0.0742
      16    C6      21.631145   19.772828   23.565003 C.3        1 MOL1        -0.1856
      17    H9      22.425594   19.700131   22.809329 H          1 MOL1         0.0742
      18    H10     21.715868   18.882917   24.204032 H          1 MOL1         0.0742
      19    C7      21.849804   21.038559   24.417912 C.3        1 MOL1        -0.2871
      20    H11     21.086613   21.119866   25.202983 H          1 MOL1         0.0754
      21    H12     21.801522   21.943263   23.797761 H          1 MOL1         0.0754
      22    H13     22.834020   21.012637   24.903443 H          1 MOL1         0.0754
@<TRIPOS>BOND
    1     1     2    1
    2     1     3    2
    3     1     4    1
    4     4     5    1
    5     4     6    1
    6     4     7    1
    7     7     8    1
    8     7     9    1
    9     7    10    1
   10    10    11    1
   11    10    12    1
   12    10    13    1
   13    13    14    1
   14    13    15    1
   15    13    16    1
   16    16    17    1
   17    16    18    1
   18    16    19    1
   19    19    20    1
   20    19    21    1
   21    19    22    1
@<TRIPOS>SUBSTRUCTURE
       1 MOL1            1 RESIDUE      1      MOL     
@<SCITEGIC>MOL_PROPERTY
VConf Rank
SciTegic.value.IntegerValue
922

@<SCITEGIC>MOL_PROPERTY
Conf_Id
SciTegic.value.IntegerValue
10

@<SCITEGIC>MOL_PROPERTY
Delta U+W
SciTegic.value.DoubleValue
-1.291

@<SCITEGIC>MOL_PROPERTY
U+W
SciTegic.value.DoubleValue
-54.451

@<SCITEGIC>MOL_PROPERTY
Grad RMS
SciTegic.value.DoubleValue
0.000000

@<SCITEGIC>MOL_PROPERTY
U
SciTegic.value.DoubleValue
5.779

@<SCITEGIC>MOL_PROPERTY
W
SciTegic.value.DoubleValue
-60.230

@<SCITEGIC>MOL_PROPERTY
W(PB)
SciTegic.value.DoubleValue
-62.557

@<SCITEGIC>MOL_PROPERTY
W(SA)
SciTegic.value.DoubleValue
2.328

@<SCITEGIC>MOL_PROPERTY
Valence
SciTegic.value.DoubleValue
7.101

@<SCITEGIC>MOL_PROPERTY
Coulomb
SciTegic.value.DoubleValue
-2.079

@<SCITEGIC>MOL_PROPERTY
VdW
SciTegic.value.DoubleValue
0.757

@<SCITEGIC>MOL_PROPERTY
VdW6
SciTegic.value.DoubleValue
-6.496

@<SCITEGIC>MOL_PROPERTY
VdW12
SciTegic.value.DoubleValue
7.253

@<SCITEGIC>MOL_PROPERTY
Bond
SciTegic.value.DoubleValue
0.100

@<SCITEGIC>MOL_PROPERTY
Angle
SciTegic.value.DoubleValue
2.262

@<SCITEGIC>MOL_PROPERTY
Pdih
SciTegic.value.DoubleValue
4.738

@<SCITEGIC>MOL_PROPERTY
Idih
SciTegic.value.DoubleValue
0.001

@<SCITEGIC>MOL_PROPERTY
Tether
SciTegic.value.DoubleValue
0.000

@<TRIPOS>MOLECULE
guest-s21_confgen4.mol2 : confsearch ligand conformer 923
          22          21           1
SMALL
USER_CHARGES
 
@<TRIPOS>ATOM
       1    C1      22.460896   21.743381   22.998451 C.2        1 MOL1         0.6145
       2    O1      23.402518   21.344500   23.654723 O.co2      1 MOL1        -0.6735
       3    O2      22.520870   22.694135   22.244179 O.co2      1 MOL1        -0.6735
       4    C2      21.136561   20.996721   23.111777 C.3        1 MOL1        -0.1985
       5    H1      20.324375   21.720207   22.971896 H          1 MOL1         0.0740
       6    H2      21.051363   20.607174   24.133370 H          1 MOL1         0.0740
       7    C3      21.006656   19.842800   22.087207 C.3        1 MOL1        -0.1882
       8    H3      21.107553   20.247570   21.070599 H          1 MOL1         0.0742
       9    H4      21.833742   19.133928   22.232052 H          1 MOL1         0.0742
      10    C4      19.658025   19.103035   22.222440 C.3        1 MOL1        -0.1880
      11    H5      18.833244   19.813589   22.075119 H          1 MOL1         0.0742
      12    H6      19.564492   18.709212   23.242892 H          1 MOL1         0.0742
      13    C5      19.534817   17.949857   21.200061 C.3        1 MOL1        -0.1880
      14    H7      19.700937   18.348505   20.189904 H          1 MOL1         0.0742
      15    H8      20.328558   17.211324   21.377481 H          1 MOL1         0.0742
      16    C6      18.158036   17.246366   21.229758 C.3        1 MOL1        -0.1856
      17    H9      18.112361   16.526152   20.401241 H          1 MOL1         0.0742
      18    H10     17.361826   17.981026   21.046362 H          1 MOL1         0.0742
      19    C7      17.881350   16.499860   22.552779 C.3        1 MOL1        -0.2871
      20    H11     16.935757   15.945903   22.490287 H          1 MOL1         0.0754
      21    H12     17.802769   17.196175   23.396979 H          1 MOL1         0.0754
      22    H13     18.680716   15.780226   22.772495 H          1 MOL1         0.0754
@<TRIPOS>BOND
    1     1     2    1
    2     1     3    2
    3     1     4    1
    4     4     5    1
    5     4     6    1
    6     4     7    1
    7     7     8    1
    8     7     9    1
    9     7    10    1
   10    10    11    1
   11    10    12    1
   12    10    13    1
   13    13    14    1
   14    13    15    1
   15    13    16    1
   16    16    17    1
   17    16    18    1
   18    16    19    1
   19    19    20    1
   20    19    21    1
   21    19    22    1
@<TRIPOS>SUBSTRUCTURE
       1 MOL1            1 RESIDUE      1      MOL     
@<SCITEGIC>MOL_PROPERTY
VConf Rank
SciTegic.value.IntegerValue
923

@<SCITEGIC>MOL_PROPERTY
Conf_Id
SciTegic.value.IntegerValue
37

@<SCITEGIC>MOL_PROPERTY
Delta U+W
SciTegic.value.DoubleValue
-0.345

@<SCITEGIC>MOL_PROPERTY
U+W
SciTegic.value.DoubleValue
-53.504

@<SCITEGIC>MOL_PROPERTY
Grad RMS
SciTegic.value.DoubleValue
0.000000

@<SCITEGIC>MOL_PROPERTY
U
SciTegic.value.DoubleValue
6.751

@<SCITEGIC>MOL_PROPERTY
W
SciTegic.value.DoubleValue
-60.255

@<SCITEGIC>MOL_PROPERTY
W(PB)
SciTegic.value.DoubleValue
-62.592

@<SCITEGIC>MOL_PROPERTY
W(SA)
SciTegic.value.DoubleValue
2.336

@<SCITEGIC>MOL_PROPERTY
Valence
SciTegic.value.DoubleValue
7.602

@<SCITEGIC>MOL_PROPERTY
Coulomb
SciTegic.value.DoubleValue
-1.744

@<SCITEGIC>MOL_PROPERTY
VdW
SciTegic.value.DoubleValue
0.894

@<SCITEGIC>MOL_PROPERTY
VdW6
SciTegic.value.DoubleValue
-7.110

@<SCITEGIC>MOL_PROPERTY
VdW12
SciTegic.value.DoubleValue
8.004

@<SCITEGIC>MOL_PROPERTY
Bond
SciTegic.value.DoubleValue
0.131

@<SCITEGIC>MOL_PROPERTY
Angle
SciTegic.value.DoubleValue
2.489

@<SCITEGIC>MOL_PROPERTY
Pdih
SciTegic.value.DoubleValue
4.982

@<SCITEGIC>MOL_PROPERTY
Idih
SciTegic.value.DoubleValue
0.001

@<SCITEGIC>MOL_PROPERTY
Tether
SciTegic.value.DoubleValue
0.000

@<TRIPOS>MOLECULE
guest-s21_confgen4.mol2 : confsearch ligand conformer 924
          22          21           1
SMALL
USER_CHARGES
 
@<TRIPOS>ATOM
       1    C1      22.627246   17.197438   24.178993 C.2        1 MOL1         0.6145
       2    O1      23.140485   16.298031   23.543302 O.co2      1 MOL1        -0.6735
       3    O2      22.589815   17.227155   25.393149 O.co2      1 MOL1        -0.6735
       4    C2      21.975096   18.341192   23.410399 C.3        1 MOL1        -0.1985
       5    H1      22.536473   18.490357   22.480204 H          1 MOL1         0.0740
       6    H2      22.083286   19.256487   24.004684 H          1 MOL1         0.0740
       7    C3      20.481017   18.080961   23.097088 C.3        1 MOL1        -0.1882
       8    H3      20.388638   17.155070   22.512502 H          1 MOL1         0.0742
       9    H4      19.936008   17.920284   24.037651 H          1 MOL1         0.0742
      10    C4      19.844164   19.252913   22.319079 C.3        1 MOL1        -0.1880
      11    H5      20.400260   19.409363   21.385566 H          1 MOL1         0.0742
      12    H6      19.935992   20.176535   22.906740 H          1 MOL1         0.0742
      13    C5      18.353880   18.986575   22.005421 C.3        1 MOL1        -0.1880
      14    H7      18.262408   18.091598   21.374877 H          1 MOL1         0.0742
      15    H8      17.825964   18.762289   22.942403 H          1 MOL1         0.0742
      16    C6      17.647911   20.178053   21.317455 C.3        1 MOL1        -0.1856
      17    H9      17.731759   21.073730   21.948361 H          1 MOL1         0.0742
      18    H10     16.575205   19.953943   21.238010 H          1 MOL1         0.0742
      19    C7      18.197555   20.482830   19.907060 C.3        1 MOL1        -0.2871
      20    H11     18.151683   19.592422   19.266587 H          1 MOL1         0.0754
      21    H12     19.239280   20.824627   19.948129 H          1 MOL1         0.0754
      22    H13     17.607104   21.274495   19.427942 H          1 MOL1         0.0754
@<TRIPOS>BOND
    1     1     2    1
    2     1     3    2
    3     1     4    1
    4     4     5    1
    5     4     6    1
    6     4     7    1
    7     7     8    1
    8     7     9    1
    9     7    10    1
   10    10    11    1
   11    10    12    1
   12    10    13    1
   13    13    14    1
   14    13    15    1
   15    13    16    1
   16    16    17    1
   17    16    18    1
   18    16    19    1
   19    19    20    1
   20    19    21    1
   21    19    22    1
@<TRIPOS>SUBSTRUCTURE
       1 MOL1            1 RESIDUE      1      MOL     
@<SCITEGIC>MOL_PROPERTY
VConf Rank
SciTegic.value.IntegerValue
924

@<SCITEGIC>MOL_PROPERTY
Conf_Id
SciTegic.value.IntegerValue
38

@<SCITEGIC>MOL_PROPERTY
Delta U+W
SciTegic.value.DoubleValue
-0.439

@<SCITEGIC>MOL_PROPERTY
U+W
SciTegic.value.DoubleValue
-53.598

@<SCITEGIC>MOL_PROPERTY
Grad RMS
SciTegic.value.DoubleValue
0.000000

@<SCITEGIC>MOL_PROPERTY
U
SciTegic.value.DoubleValue
6.751

@<SCITEGIC>MOL_PROPERTY
W
SciTegic.value.DoubleValue
-60.350

@<SCITEGIC>MOL_PROPERTY
W(PB)
SciTegic.value.DoubleValue
-62.659

@<SCITEGIC>MOL_PROPERTY
W(SA)
SciTegic.value.DoubleValue
2.309

@<SCITEGIC>MOL_PROPERTY
Valence
SciTegic.value.DoubleValue
7.602

@<SCITEGIC>MOL_PROPERTY
Coulomb
SciTegic.value.DoubleValue
-1.744

@<SCITEGIC>MOL_PROPERTY
VdW
SciTegic.value.DoubleValue
0.893

@<SCITEGIC>MOL_PROPERTY
VdW6
SciTegic.value.DoubleValue
-7.110

@<SCITEGIC>MOL_PROPERTY
VdW12
SciTegic.value.DoubleValue
8.004

@<SCITEGIC>MOL_PROPERTY
Bond
SciTegic.value.DoubleValue
0.131

@<SCITEGIC>MOL_PROPERTY
Angle
SciTegic.value.DoubleValue
2.489

@<SCITEGIC>MOL_PROPERTY
Pdih
SciTegic.value.DoubleValue
4.981

@<SCITEGIC>MOL_PROPERTY
Idih
SciTegic.value.DoubleValue
0.001

@<SCITEGIC>MOL_PROPERTY
Tether
SciTegic.value.DoubleValue
0.000

@<TRIPOS>MOLECULE
guest-s21_confgen4.mol2 : confsearch ligand conformer 925
          22          21           1
SMALL
USER_CHARGES
 
@<TRIPOS>ATOM
       1    C1      23.023552   19.862987   20.345028 C.2        1 MOL1         0.6145
       2    O1      24.101585   19.350516   20.572583 O.co2      1 MOL1        -0.6735
       3    O2      22.891677   20.925188   19.769815 O.co2      1 MOL1        -0.6735
       4    C2      21.768563   19.144567   20.827900 C.3        1 MOL1        -0.1985
       5    H1      21.959709   18.065391   20.792416 H          1 MOL1         0.0740
       6    H2      20.967398   19.357147   20.111378 H          1 MOL1         0.0740
       7    C3      21.349666   19.566919   22.260294 C.3        1 MOL1        -0.1882
       8    H3      22.208943   19.431033   22.931580 H          1 MOL1         0.0742
       9    H4      21.113489   20.639931   22.272948 H          1 MOL1         0.0742
      10    C4      20.153087   18.761179   22.820385 C.3        1 MOL1        -0.1880
      11    H5      20.027155   19.030795   23.876688 H          1 MOL1         0.0742
      12    H6      20.389210   17.688596   22.798485 H          1 MOL1         0.0742
      13    C5      18.827963   19.020338   22.062161 C.3        1 MOL1        -0.1880
      14    H7      18.592905   20.093199   22.082615 H          1 MOL1         0.0742
      15    H8      18.951524   18.748285   21.006320 H          1 MOL1         0.0742
      16    C6      17.631406   18.218164   22.625087 C.3        1 MOL1        -0.1856
      17    H9      17.867103   17.145003   22.617034 H          1 MOL1         0.0742
      18    H10     16.772033   18.351670   21.953597 H          1 MOL1         0.0742
      19    C7      17.217941   18.649609   24.049010 C.3        1 MOL1        -0.2871
      20    H11     18.002244   18.422100   24.781495 H          1 MOL1         0.0754
      21    H12     16.309060   18.119289   24.361442 H          1 MOL1         0.0754
      22    H13     17.010745   19.726932   24.088616 H          1 MOL1         0.0754
@<TRIPOS>BOND
    1     1     2    1
    2     1     3    2
    3     1     4    1
    4     4     5    1
    5     4     6    1
    6     4     7    1
    7     7     8    1
    8     7     9    1
    9     7    10    1
   10    10    11    1
   11    10    12    1
   12    10    13    1
   13    13    14    1
   14    13    15    1
   15    13    16    1
   16    16    17    1
   17    16    18    1
   18    16    19    1
   19    19    20    1
   20    19    21    1
   21    19    22    1
@<TRIPOS>SUBSTRUCTURE
       1 MOL1            1 RESIDUE      1      MOL     
@<SCITEGIC>MOL_PROPERTY
VConf Rank
SciTegic.value.IntegerValue
925

@<SCITEGIC>MOL_PROPERTY
Conf_Id
SciTegic.value.IntegerValue
60

@<SCITEGIC>MOL_PROPERTY
Delta U+W
SciTegic.value.DoubleValue
0.386

@<SCITEGIC>MOL_PROPERTY
U+W
SciTegic.value.DoubleValue
-52.773

@<SCITEGIC>MOL_PROPERTY
Grad RMS
SciTegic.value.DoubleValue
0.000000

@<SCITEGIC>MOL_PROPERTY
U
SciTegic.value.DoubleValue
7.689

@<SCITEGIC>MOL_PROPERTY
W
SciTegic.value.DoubleValue
-60.463

@<SCITEGIC>MOL_PROPERTY
W(PB)
SciTegic.value.DoubleValue
-62.772

@<SCITEGIC>MOL_PROPERTY
W(SA)
SciTegic.value.DoubleValue
2.309

@<SCITEGIC>MOL_PROPERTY
Valence
SciTegic.value.DoubleValue
8.197

@<SCITEGIC>MOL_PROPERTY
Coulomb
SciTegic.value.DoubleValue
-1.561

@<SCITEGIC>MOL_PROPERTY
VdW
SciTegic.value.DoubleValue
1.053

@<SCITEGIC>MOL_PROPERTY
VdW6
SciTegic.value.DoubleValue
-7.737

@<SCITEGIC>MOL_PROPERTY
VdW12
SciTegic.value.DoubleValue
8.790

@<SCITEGIC>MOL_PROPERTY
Bond
SciTegic.value.DoubleValue
0.181

@<SCITEGIC>MOL_PROPERTY
Angle
SciTegic.value.DoubleValue
2.780

@<SCITEGIC>MOL_PROPERTY
Pdih
SciTegic.value.DoubleValue
5.235

@<SCITEGIC>MOL_PROPERTY
Idih
SciTegic.value.DoubleValue
0.001

@<SCITEGIC>MOL_PROPERTY
Tether
SciTegic.value.DoubleValue
0.000

@<TRIPOS>MOLECULE
guest-s21_confgen4.mol2 : confsearch ligand conformer 926
          22          21           1
SMALL
USER_CHARGES
 
@<TRIPOS>ATOM
       1    C1      21.103886   16.257739   19.893874 C.2        1 MOL1         0.6145
       2    O1      21.608747   16.765275   18.912010 O.co2      1 MOL1        -0.6735
       3    O2      20.739031   15.099592   19.940117 O.co2      1 MOL1        -0.6735
       4    C2      20.896006   17.127926   21.128317 C.3        1 MOL1        -0.1985
       5    H1      21.718178   17.851085   21.167507 H          1 MOL1         0.0740
       6    H2      20.982694   16.487521   22.014196 H          1 MOL1         0.0740
       7    C3      19.525872   17.854795   21.125579 C.3        1 MOL1        -0.1882
       8    H3      19.469709   18.530190   20.260719 H          1 MOL1         0.0742
       9    H4      18.732433   17.107364   20.986839 H          1 MOL1         0.0742
      10    C4      19.239010   18.644140   22.425335 C.3        1 MOL1        -0.1880
      11    H5      19.304025   17.967836   23.288500 H          1 MOL1         0.0742
      12    H6      18.201208   18.998631   22.384975 H          1 MOL1         0.0742
      13    C5      20.186714   19.850893   22.634189 C.3        1 MOL1        -0.1880
      14    H7      21.224635   19.497497   22.677900 H          1 MOL1         0.0742
      15    H8      20.123010   20.526148   21.770084 H          1 MOL1         0.0742
      16    C6      19.896690   20.642166   23.931064 C.3        1 MOL1        -0.1856
      17    H9      20.690646   21.388481   24.072109 H          1 MOL1         0.0742
      18    H10     19.948120   19.967686   24.796931 H          1 MOL1         0.0742
      19    C7      18.533409   21.367356   23.916397 C.3        1 MOL1        -0.2871
      20    H11     18.445883   22.021911   23.039458 H          1 MOL1         0.0754
      21    H12     18.420142   21.988741   24.814156 H          1 MOL1         0.0754
      22    H13     17.699406   20.654908   23.899580 H          1 MOL1         0.0754
@<TRIPOS>BOND
    1     1     2    1
    2     1     3    2
    3     1     4    1
    4     4     5    1
    5     4     6    1
    6     4     7    1
    7     7     8    1
    8     7     9    1
    9     7    10    1
   10    10    11    1
   11    10    12    1
   12    10    13    1
   13    13    14    1
   14    13    15    1
   15    13    16    1
   16    16    17    1
   17    16    18    1
   18    16    19    1
   19    19    20    1
   20    19    21    1
   21    19    22    1
@<TRIPOS>SUBSTRUCTURE
       1 MOL1            1 RESIDUE      1      MOL     
@<SCITEGIC>MOL_PROPERTY
VConf Rank
SciTegic.value.IntegerValue
926

@<SCITEGIC>MOL_PROPERTY
Conf_Id
SciTegic.value.IntegerValue
28

@<SCITEGIC>MOL_PROPERTY
Delta U+W
SciTegic.value.DoubleValue
0.351

@<SCITEGIC>MOL_PROPERTY
U+W
SciTegic.value.DoubleValue
-52.808

@<SCITEGIC>MOL_PROPERTY
Grad RMS
SciTegic.value.DoubleValue
0.000000

@<SCITEGIC>MOL_PROPERTY
U
SciTegic.value.DoubleValue
7.689

@<SCITEGIC>MOL_PROPERTY
W
SciTegic.value.DoubleValue
-60.498

@<SCITEGIC>MOL_PROPERTY
W(PB)
SciTegic.value.DoubleValue
-62.768

@<SCITEGIC>MOL_PROPERTY
W(SA)
SciTegic.value.DoubleValue
2.270

@<SCITEGIC>MOL_PROPERTY
Valence
SciTegic.value.DoubleValue
8.197

@<SCITEGIC>MOL_PROPERTY
Coulomb
SciTegic.value.DoubleValue
-1.561

@<SCITEGIC>MOL_PROPERTY
VdW
SciTegic.value.DoubleValue
1.053

@<SCITEGIC>MOL_PROPERTY
VdW6
SciTegic.value.DoubleValue
-7.737

@<SCITEGIC>MOL_PROPERTY
VdW12
SciTegic.value.DoubleValue
8.791

@<SCITEGIC>MOL_PROPERTY
Bond
SciTegic.value.DoubleValue
0.181

@<SCITEGIC>MOL_PROPERTY
Angle
SciTegic.value.DoubleValue
2.780

@<SCITEGIC>MOL_PROPERTY
Pdih
SciTegic.value.DoubleValue
5.235

@<SCITEGIC>MOL_PROPERTY
Idih
SciTegic.value.DoubleValue
0.001

@<SCITEGIC>MOL_PROPERTY
Tether
SciTegic.value.DoubleValue
0.000

@<TRIPOS>MOLECULE
guest-s21_confgen4.mol2 : confsearch ligand conformer 927
          22          21           1
SMALL
USER_CHARGES
 
@<TRIPOS>ATOM
       1    C1      16.215533   19.421899   22.154010 C.2        1 MOL1         0.6145
       2    O1      15.530539   18.654235   22.800497 O.co2      1 MOL1        -0.6735
       3    O2      16.018748   20.619870   22.103036 O.co2      1 MOL1        -0.6735
       4    C2      17.399415   18.853140   21.379892 C.3        1 MOL1        -0.1985
       5    H1      17.540262   19.460611   20.477788 H          1 MOL1         0.0740
       6    H2      17.136483   17.840477   21.051263 H          1 MOL1         0.0740
       7    C3      18.704616   18.823661   22.212879 C.3        1 MOL1        -0.1882
       8    H3      18.935316   19.843911   22.546548 H          1 MOL1         0.0742
       9    H4      18.544580   18.219281   23.116438 H          1 MOL1         0.0742
      10    C4      19.888849   18.247301   21.402655 C.3        1 MOL1        -0.1880
      11    H5      20.082797   18.881852   20.527031 H          1 MOL1         0.0742
      12    H6      19.607904   17.258839   21.014102 H          1 MOL1         0.0742
      13    C5      21.186983   18.096946   22.230787 C.3        1 MOL1        -0.1880
      14    H7      20.994490   17.459142   23.104333 H          1 MOL1         0.0742
      15    H8      21.930925   17.568838   21.618758 H          1 MOL1         0.0742
      16    C6      21.783817   19.445791   22.691977 C.3        1 MOL1        -0.1856
      17    H9      21.086912   19.956171   23.369616 H          1 MOL1         0.0742
      18    H10     21.927309   20.103820   21.823868 H          1 MOL1         0.0742
      19    C7      23.132004   19.249910   23.414291 C.3        1 MOL1        -0.2871
      20    H11     23.867864   18.775485   22.751881 H          1 MOL1         0.0754
      21    H12     23.012472   18.616991   24.303398 H          1 MOL1         0.0754
      22    H13     23.541077   20.215719   23.738239 H          1 MOL1         0.0754
@<TRIPOS>BOND
    1     1     2    1
    2     1     3    2
    3     1     4    1
    4     4     5    1
    5     4     6    1
    6     4     7    1
    7     7     8    1
    8     7     9    1
    9     7    10    1
   10    10    11    1
   11    10    12    1
   12    10    13    1
   13    13    14    1
   14    13    15    1
   15    13    16    1
   16    16    17    1
   17    16    18    1
   18    16    19    1
   19    19    20    1
   20    19    21    1
   21    19    22    1
@<TRIPOS>SUBSTRUCTURE
       1 MOL1            1 RESIDUE      1      MOL     
@<SCITEGIC>MOL_PROPERTY
VConf Rank
SciTegic.value.IntegerValue
927

@<SCITEGIC>MOL_PROPERTY
Conf_Id
SciTegic.value.IntegerValue
50

@<SCITEGIC>MOL_PROPERTY
Delta U+W
SciTegic.value.DoubleValue
-0.486

@<SCITEGIC>MOL_PROPERTY
U+W
SciTegic.value.DoubleValue
-53.646

@<SCITEGIC>MOL_PROPERTY
Grad RMS
SciTegic.value.DoubleValue
0.000000

@<SCITEGIC>MOL_PROPERTY
U
SciTegic.value.DoubleValue
7.026

@<SCITEGIC>MOL_PROPERTY
W
SciTegic.value.DoubleValue
-60.672

@<SCITEGIC>MOL_PROPERTY
W(PB)
SciTegic.value.DoubleValue
-62.964

@<SCITEGIC>MOL_PROPERTY
W(SA)
SciTegic.value.DoubleValue
2.292

@<SCITEGIC>MOL_PROPERTY
Valence
SciTegic.value.DoubleValue
7.637

@<SCITEGIC>MOL_PROPERTY
Coulomb
SciTegic.value.DoubleValue
-1.488

@<SCITEGIC>MOL_PROPERTY
VdW
SciTegic.value.DoubleValue
0.877

@<SCITEGIC>MOL_PROPERTY
VdW6
SciTegic.value.DoubleValue
-7.165

@<SCITEGIC>MOL_PROPERTY
VdW12
SciTegic.value.DoubleValue
8.043

@<SCITEGIC>MOL_PROPERTY
Bond
SciTegic.value.DoubleValue
0.134

@<SCITEGIC>MOL_PROPERTY
Angle
SciTegic.value.DoubleValue
2.513

@<SCITEGIC>MOL_PROPERTY
Pdih
SciTegic.value.DoubleValue
4.990

@<SCITEGIC>MOL_PROPERTY
Idih
SciTegic.value.DoubleValue
0.001

@<SCITEGIC>MOL_PROPERTY
Tether
SciTegic.value.DoubleValue
0.000

@<TRIPOS>MOLECULE
guest-s21_confgen4.mol2 : confsearch ligand conformer 928
          22          21           1
SMALL
USER_CHARGES
 
@<TRIPOS>ATOM
       1    C1      17.844435   16.704529   24.497803 C.2        1 MOL1         0.6145
       2    O1      18.293516   15.584118   24.637363 O.co2      1 MOL1        -0.6735
       3    O2      16.661724   16.942276   24.352454 O.co2      1 MOL1        -0.6735
       4    C2      18.821166   17.875055   24.483837 C.3        1 MOL1        -0.1985
       5    H1      19.657784   17.628314   25.148519 H          1 MOL1         0.0740
       6    H2      18.313353   18.747773   24.911785 H          1 MOL1         0.0740
       7    C3      19.344643   18.204896   23.064163 C.3        1 MOL1        -0.1882
       8    H3      19.842168   17.318860   22.646178 H          1 MOL1         0.0742
       9    H4      18.488761   18.428435   22.413806 H          1 MOL1         0.0742
      10    C4      20.328735   19.397548   23.078818 C.3        1 MOL1        -0.1880
      11    H5      21.136180   19.185199   23.792892 H          1 MOL1         0.0742
      12    H6      19.816248   20.296680   23.447473 H          1 MOL1         0.0742
      13    C5      20.961230   19.691686   21.697878 C.3        1 MOL1        -0.1880
      14    H7      21.733122   20.462870   21.825880 H          1 MOL1         0.0742
      15    H8      21.477205   18.793999   21.330644 H          1 MOL1         0.0742
      16    C6      19.940697   20.174391   20.642512 C.3        1 MOL1        -0.1856
      17    H9      19.387341   21.040489   21.030941 H          1 MOL1         0.0742
      18    H10     19.203077   19.386534   20.441121 H          1 MOL1         0.0742
      19    C7      20.634430   20.560957   19.320764 C.3        1 MOL1        -0.2871
      20    H11     21.173659   19.704355   18.895498 H          1 MOL1         0.0754
      21    H12     21.353630   21.375523   19.477584 H          1 MOL1         0.0754
      22    H13     19.896761   20.898270   18.581080 H          1 MOL1         0.0754
@<TRIPOS>BOND
    1     1     2    1
    2     1     3    2
    3     1     4    1
    4     4     5    1
    5     4     6    1
    6     4     7    1
    7     7     8    1
    8     7     9    1
    9     7    10    1
   10    10    11    1
   11    10    12    1
   12    10    13    1
   13    13    14    1
   14    13    15    1
   15    13    16    1
   16    16    17    1
   17    16    18    1
   18    16    19    1
   19    19    20    1
   20    19    21    1
   21    19    22    1
@<TRIPOS>SUBSTRUCTURE
       1 MOL1            1 RESIDUE      1      MOL     
@<SCITEGIC>MOL_PROPERTY
VConf Rank
SciTegic.value.IntegerValue
928

@<SCITEGIC>MOL_PROPERTY
Conf_Id
SciTegic.value.IntegerValue
51

@<SCITEGIC>MOL_PROPERTY
Delta U+W
SciTegic.value.DoubleValue
-0.517

@<SCITEGIC>MOL_PROPERTY
U+W
SciTegic.value.DoubleValue
-53.677

@<SCITEGIC>MOL_PROPERTY
Grad RMS
SciTegic.value.DoubleValue
0.000000

@<SCITEGIC>MOL_PROPERTY
U
SciTegic.value.DoubleValue
7.026

@<SCITEGIC>MOL_PROPERTY
W
SciTegic.value.DoubleValue
-60.703

@<SCITEGIC>MOL_PROPERTY
W(PB)
SciTegic.value.DoubleValue
-63.007

@<SCITEGIC>MOL_PROPERTY
W(SA)
SciTegic.value.DoubleValue
2.304

@<SCITEGIC>MOL_PROPERTY
Valence
SciTegic.value.DoubleValue
7.638

@<SCITEGIC>MOL_PROPERTY
Coulomb
SciTegic.value.DoubleValue
-1.488

@<SCITEGIC>MOL_PROPERTY
VdW
SciTegic.value.DoubleValue
0.877

@<SCITEGIC>MOL_PROPERTY
VdW6
SciTegic.value.DoubleValue
-7.165

@<SCITEGIC>MOL_PROPERTY
VdW12
SciTegic.value.DoubleValue
8.042

@<SCITEGIC>MOL_PROPERTY
Bond
SciTegic.value.DoubleValue
0.134

@<SCITEGIC>MOL_PROPERTY
Angle
SciTegic.value.DoubleValue
2.513

@<SCITEGIC>MOL_PROPERTY
Pdih
SciTegic.value.DoubleValue
4.990

@<SCITEGIC>MOL_PROPERTY
Idih
SciTegic.value.DoubleValue
0.001

@<SCITEGIC>MOL_PROPERTY
Tether
SciTegic.value.DoubleValue
0.000

@<TRIPOS>MOLECULE
guest-s21_confgen4.mol2 : confsearch ligand conformer 929
          22          21           1
SMALL
USER_CHARGES
 
@<TRIPOS>ATOM
       1    C1      22.555873   18.670796   20.045564 C.2        1 MOL1         0.6145
       2    O1      23.269437   17.700654   20.208508 O.co2      1 MOL1        -0.6735
       3    O2      21.907713   18.866803   19.036474 O.co2      1 MOL1        -0.6735
       4    C2      22.486242   19.707873   21.163042 C.3        1 MOL1        -0.1985
       5    H1      22.103302   20.647118   20.745811 H          1 MOL1         0.0740
       6    H2      23.513164   19.902938   21.493833 H          1 MOL1         0.0740
       7    C3      21.625404   19.270645   22.376624 C.3        1 MOL1        -0.1882
       8    H3      22.003641   18.315021   22.765690 H          1 MOL1         0.0742
       9    H4      21.743363   20.008630   23.181613 H          1 MOL1         0.0742
      10    C4      20.126903   19.136053   22.024535 C.3        1 MOL1        -0.1880
      11    H5      19.998964   18.386537   21.231273 H          1 MOL1         0.0742
      12    H6      19.757004   20.089825   21.623899 H          1 MOL1         0.0742
      13    C5      19.284984   18.730919   23.253555 C.3        1 MOL1        -0.1880
      14    H7      19.655465   17.777068   23.653581 H          1 MOL1         0.0742
      15    H8      19.408992   19.480427   24.047229 H          1 MOL1         0.0742
      16    C6      17.788486   18.595552   22.902536 C.3        1 MOL1        -0.1856
      17    H9      17.660358   17.845207   22.110029 H          1 MOL1         0.0742
      18    H10     17.413891   19.548420   22.503559 H          1 MOL1         0.0742
      19    C7      16.951032   18.190267   24.132077 C.3        1 MOL1        -0.2871
      20    H11     17.284195   17.224009   24.533012 H          1 MOL1         0.0754
      21    H12     15.890322   18.098606   23.864533 H          1 MOL1         0.0754
      22    H13     17.035896   18.940059   24.929576 H          1 MOL1         0.0754
@<TRIPOS>BOND
    1     1     2    1
    2     1     3    2
    3     1     4    1
    4     4     5    1
    5     4     6    1
    6     4     7    1
    7     7     8    1
    8     7     9    1
    9     7    10    1
   10    10    11    1
   11    10    12    1
   12    10    13    1
   13    13    14    1
   14    13    15    1
   15    13    16    1
   16    16    17    1
   17    16    18    1
   18    16    19    1
   19    19    20    1
   20    19    21    1
   21    19    22    1
@<TRIPOS>SUBSTRUCTURE
       1 MOL1            1 RESIDUE      1      MOL     
@<SCITEGIC>MOL_PROPERTY
VConf Rank
SciTegic.value.IntegerValue
929

@<SCITEGIC>MOL_PROPERTY
Conf_Id
SciTegic.value.IntegerValue
43

@<SCITEGIC>MOL_PROPERTY
Delta U+W
SciTegic.value.DoubleValue
-0.129

@<SCITEGIC>MOL_PROPERTY
U+W
SciTegic.value.DoubleValue
-53.289

@<SCITEGIC>MOL_PROPERTY
Grad RMS
SciTegic.value.DoubleValue
0.000000

@<SCITEGIC>MOL_PROPERTY
U
SciTegic.value.DoubleValue
7.937

@<SCITEGIC>MOL_PROPERTY
W
SciTegic.value.DoubleValue
-61.225

@<SCITEGIC>MOL_PROPERTY
W(PB)
SciTegic.value.DoubleValue
-63.523

@<SCITEGIC>MOL_PROPERTY
W(SA)
SciTegic.value.DoubleValue
2.297

@<SCITEGIC>MOL_PROPERTY
Valence
SciTegic.value.DoubleValue
7.358

@<SCITEGIC>MOL_PROPERTY
Coulomb
SciTegic.value.DoubleValue
-0.022

@<SCITEGIC>MOL_PROPERTY
VdW
SciTegic.value.DoubleValue
0.601

@<SCITEGIC>MOL_PROPERTY
VdW6
SciTegic.value.DoubleValue
-7.363

@<SCITEGIC>MOL_PROPERTY
VdW12
SciTegic.value.DoubleValue
7.964

@<SCITEGIC>MOL_PROPERTY
Bond
SciTegic.value.DoubleValue
0.121

@<SCITEGIC>MOL_PROPERTY
Angle
SciTegic.value.DoubleValue
2.425

@<SCITEGIC>MOL_PROPERTY
Pdih
SciTegic.value.DoubleValue
4.811

@<SCITEGIC>MOL_PROPERTY
Idih
SciTegic.value.DoubleValue
0.000

@<SCITEGIC>MOL_PROPERTY
Tether
SciTegic.value.DoubleValue
0.000

@<TRIPOS>MOLECULE
guest-s21_confgen4.mol2 : confsearch ligand conformer 930
          22          21           1
SMALL
USER_CHARGES
 
@<TRIPOS>ATOM
       1    C1      19.092849   16.510949   20.090930 C.2        1 MOL1         0.6145
       2    O1      19.021852   16.894279   18.939878 O.co2      1 MOL1        -0.6735
       3    O2      18.175995   15.970230   20.677269 O.co2      1 MOL1        -0.6735
       4    C2      20.412564   16.703688   20.832775 C.3        1 MOL1        -0.1985
       5    H1      21.217001   16.386715   20.158646 H          1 MOL1         0.0740
       6    H2      20.433145   16.023925   21.693242 H          1 MOL1         0.0740
       7    C3      20.668942   18.161434   21.295641 C.3        1 MOL1        -0.1882
       8    H3      21.690686   18.235004   21.692086 H          1 MOL1         0.0742
       9    H4      20.617356   18.833305   20.427550 H          1 MOL1         0.0742
      10    C4      19.668170   18.626159   22.377341 C.3        1 MOL1        -0.1880
      11    H5      19.714211   17.943884   23.237223 H          1 MOL1         0.0742
      12    H6      18.644308   18.571652   21.982194 H          1 MOL1         0.0742
      13    C5      19.961097   20.067788   22.845695 C.3        1 MOL1        -0.1880
      14    H7      20.983482   20.124240   23.243943 H          1 MOL1         0.0742
      15    H8      19.914824   20.749443   21.985280 H          1 MOL1         0.0742
      16    C6      18.961597   20.532863   23.925397 C.3        1 MOL1        -0.1856
      17    H9      19.006246   19.854231   24.788489 H          1 MOL1         0.0742
      18    H10     17.937754   20.479452   23.529927 H          1 MOL1         0.0742
      19    C7      19.256839   21.973059   24.390181 C.3        1 MOL1        -0.2871
      20    H11     20.264461   22.048412   24.819618 H          1 MOL1         0.0754
      21    H12     18.537134   22.287214   25.157264 H          1 MOL1         0.0754
      22    H13     19.187875   22.678313   23.551574 H          1 MOL1         0.0754
@<TRIPOS>BOND
    1     1     2    1
    2     1     3    2
    3     1     4    1
    4     4     5    1
    5     4     6    1
    6     4     7    1
    7     7     8    1
    8     7     9    1
    9     7    10    1
   10    10    11    1
   11    10    12    1
   12    10    13    1
   13    13    14    1
   14    13    15    1
   15    13    16    1
   16    16    17    1
   17    16    18    1
   18    16    19    1
   19    19    20    1
   20    19    21    1
   21    19    22    1
@<TRIPOS>SUBSTRUCTURE
       1 MOL1            1 RESIDUE      1      MOL     
@<SCITEGIC>MOL_PROPERTY
VConf Rank
SciTegic.value.IntegerValue
930

@<SCITEGIC>MOL_PROPERTY
Conf_Id
SciTegic.value.IntegerValue
44

@<SCITEGIC>MOL_PROPERTY
Delta U+W
SciTegic.value.DoubleValue
-0.155

@<SCITEGIC>MOL_PROPERTY
U+W
SciTegic.value.DoubleValue
-53.314

@<SCITEGIC>MOL_PROPERTY
Grad RMS
SciTegic.value.DoubleValue
0.000000

@<SCITEGIC>MOL_PROPERTY
U
SciTegic.value.DoubleValue
7.937

@<SCITEGIC>MOL_PROPERTY
W
SciTegic.value.DoubleValue
-61.252

@<SCITEGIC>MOL_PROPERTY
W(PB)
SciTegic.value.DoubleValue
-63.556

@<SCITEGIC>MOL_PROPERTY
W(SA)
SciTegic.value.DoubleValue
2.304

@<SCITEGIC>MOL_PROPERTY
Valence
SciTegic.value.DoubleValue
7.358

@<SCITEGIC>MOL_PROPERTY
Coulomb
SciTegic.value.DoubleValue
-0.021

@<SCITEGIC>MOL_PROPERTY
VdW
SciTegic.value.DoubleValue
0.600

@<SCITEGIC>MOL_PROPERTY
VdW6
SciTegic.value.DoubleValue
-7.363

@<SCITEGIC>MOL_PROPERTY
VdW12
SciTegic.value.DoubleValue
7.964

@<SCITEGIC>MOL_PROPERTY
Bond
SciTegic.value.DoubleValue
0.121

@<SCITEGIC>MOL_PROPERTY
Angle
SciTegic.value.DoubleValue
2.425

@<SCITEGIC>MOL_PROPERTY
Pdih
SciTegic.value.DoubleValue
4.811

@<SCITEGIC>MOL_PROPERTY
Idih
SciTegic.value.DoubleValue
0.001

@<SCITEGIC>MOL_PROPERTY
Tether
SciTegic.value.DoubleValue
0.000

@<TRIPOS>MOLECULE
guest-s21_confgen4.mol2 : confsearch ligand conformer 931
          22          21           1
SMALL
USER_CHARGES
 
@<TRIPOS>ATOM
       1    C1      16.731058   18.824144   24.148315 C.2        1 MOL1         0.6145
       2    O1      15.770783   19.115869   23.462973 O.co2      1 MOL1        -0.6735
       3    O2      16.943425   19.301087   25.245717 O.co2      1 MOL1        -0.6735
       4    C2      17.712348   17.787821   23.607560 C.3        1 MOL1        -0.1985
       5    H1      17.121462   16.953880   23.210790 H          1 MOL1         0.0740
       6    H2      18.299598   17.390764   24.444443 H          1 MOL1         0.0740
       7    C3      18.655172   18.326696   22.500166 C.3        1 MOL1        -0.1882
       8    H3      19.207240   17.480497   22.071992 H          1 MOL1         0.0742
       9    H4      18.053395   18.757172   21.687789 H          1 MOL1         0.0742
      10    C4      19.652100   19.384318   23.031937 C.3        1 MOL1        -0.1880
      11    H5      20.281514   18.939833   23.814926 H          1 MOL1         0.0742
      12    H6      19.091837   20.198790   23.511241 H          1 MOL1         0.0742
      13    C5      20.549590   19.995098   21.929538 C.3        1 MOL1        -0.1880
      14    H7      19.919746   20.439281   21.146648 H          1 MOL1         0.0742
      15    H8      21.126461   20.820319   22.369008 H          1 MOL1         0.0742
      16    C6      21.529129   18.980424   21.297585 C.3        1 MOL1        -0.1856
      17    H9      20.972356   18.187238   20.781761 H          1 MOL1         0.0742
      18    H10     22.121321   18.496320   22.086347 H          1 MOL1         0.0742
      19    C7      22.477592   19.662218   20.290949 C.3        1 MOL1        -0.2871
      20    H11     21.912244   20.132106   19.475491 H          1 MOL1         0.0754
      21    H12     23.164206   18.928723   19.848672 H          1 MOL1         0.0754
      22    H13     23.080480   20.437555   20.781597 H          1 MOL1         0.0754
@<TRIPOS>BOND
    1     1     2    1
    2     1     3    2
    3     1     4    1
    4     4     5    1
    5     4     6    1
    6     4     7    1
    7     7     8    1
    8     7     9    1
    9     7    10    1
   10    10    11    1
   11    10    12    1
   12    10    13    1
   13    13    14    1
   14    13    15    1
   15    13    16    1
   16    16    17    1
   17    16    18    1
   18    16    19    1
   19    19    20    1
   20    19    21    1
   21    19    22    1
@<TRIPOS>SUBSTRUCTURE
       1 MOL1            1 RESIDUE      1      MOL     
@<SCITEGIC>MOL_PROPERTY
VConf Rank
SciTegic.value.IntegerValue
931

@<SCITEGIC>MOL_PROPERTY
Conf_Id
SciTegic.value.IntegerValue
53

@<SCITEGIC>MOL_PROPERTY
Delta U+W
SciTegic.value.DoubleValue
0.723

@<SCITEGIC>MOL_PROPERTY
U+W
SciTegic.value.DoubleValue
-52.436

@<SCITEGIC>MOL_PROPERTY
Grad RMS
SciTegic.value.DoubleValue
0.000000

@<SCITEGIC>MOL_PROPERTY
U
SciTegic.value.DoubleValue
8.587

@<SCITEGIC>MOL_PROPERTY
W
SciTegic.value.DoubleValue
-61.022

@<SCITEGIC>MOL_PROPERTY
W(PB)
SciTegic.value.DoubleValue
-63.285

@<SCITEGIC>MOL_PROPERTY
W(SA)
SciTegic.value.DoubleValue
2.263

@<SCITEGIC>MOL_PROPERTY
Valence
SciTegic.value.DoubleValue
7.933

@<SCITEGIC>MOL_PROPERTY
Coulomb
SciTegic.value.DoubleValue
-0.124

@<SCITEGIC>MOL_PROPERTY
VdW
SciTegic.value.DoubleValue
0.778

@<SCITEGIC>MOL_PROPERTY
VdW6
SciTegic.value.DoubleValue
-7.981

@<SCITEGIC>MOL_PROPERTY
VdW12
SciTegic.value.DoubleValue
8.759

@<SCITEGIC>MOL_PROPERTY
Bond
SciTegic.value.DoubleValue
0.160

@<SCITEGIC>MOL_PROPERTY
Angle
SciTegic.value.DoubleValue
2.698

@<SCITEGIC>MOL_PROPERTY
Pdih
SciTegic.value.DoubleValue
5.074

@<SCITEGIC>MOL_PROPERTY
Idih
SciTegic.value.DoubleValue
0.001

@<SCITEGIC>MOL_PROPERTY
Tether
SciTegic.value.DoubleValue
0.000

@<TRIPOS>MOLECULE
guest-s21_confgen4.mol2 : confsearch ligand conformer 932
          22          21           1
SMALL
USER_CHARGES
 
@<TRIPOS>ATOM
       1    C1      22.073764   18.430791   19.995971 C.2        1 MOL1         0.6145
       2    O1      21.607847   17.695591   19.148050 O.co2      1 MOL1        -0.6735
       3    O2      23.180615   18.926715   19.921653 O.co2      1 MOL1        -0.6735
       4    C2      21.214099   18.767460   21.209079 C.3        1 MOL1        -0.1985
       5    H1      21.880540   18.933817   22.063751 H          1 MOL1         0.0740
       6    H2      20.600416   17.888052   21.434386 H          1 MOL1         0.0740
       7    C3      20.314107   20.008121   20.981243 C.3        1 MOL1        -0.1882
       8    H3      20.941027   20.836802   20.623916 H          1 MOL1         0.0742
       9    H4      19.600001   19.793079   20.174358 H          1 MOL1         0.0742
      10    C4      19.546758   20.480770   22.241578 C.3        1 MOL1        -0.1880
      11    H5      18.987891   21.386181   21.968000 H          1 MOL1         0.0742
      12    H6      20.256013   20.792232   23.020618 H          1 MOL1         0.0742
      13    C5      18.542054   19.447437   22.811229 C.3        1 MOL1        -0.1880
      14    H7      17.661994   19.987836   23.186002 H          1 MOL1         0.0742
      15    H8      18.178645   18.791854   22.008042 H          1 MOL1         0.0742
      16    C6      19.119959   18.606621   23.973042 C.3        1 MOL1        -0.1856
      17    H9      19.425886   19.272496   24.791708 H          1 MOL1         0.0742
      18    H10     20.020915   18.070753   23.651346 H          1 MOL1         0.0742
      19    C7      18.088622   17.590198   24.502721 C.3        1 MOL1        -0.2871
      20    H11     17.188406   18.099230   24.871274 H          1 MOL1         0.0754
      21    H12     18.510962   17.006423   25.330893 H          1 MOL1         0.0754
      22    H13     17.787466   16.889407   23.713066 H          1 MOL1         0.0754
@<TRIPOS>BOND
    1     1     2    1
    2     1     3    2
    3     1     4    1
    4     4     5    1
    5     4     6    1
    6     4     7    1
    7     7     8    1
    8     7     9    1
    9     7    10    1
   10    10    11    1
   11    10    12    1
   12    10    13    1
   13    13    14    1
   14    13    15    1
   15    13    16    1
   16    16    17    1
   17    16    18    1
   18    16    19    1
   19    19    20    1
   20    19    21    1
   21    19    22    1
@<TRIPOS>SUBSTRUCTURE
       1 MOL1            1 RESIDUE      1      MOL     
@<SCITEGIC>MOL_PROPERTY
VConf Rank
SciTegic.value.IntegerValue
932

@<SCITEGIC>MOL_PROPERTY
Conf_Id
SciTegic.value.IntegerValue
5

@<SCITEGIC>MOL_PROPERTY
Delta U+W
SciTegic.value.DoubleValue
2.167

@<SCITEGIC>MOL_PROPERTY
U+W
SciTegic.value.DoubleValue
-50.993

@<SCITEGIC>MOL_PROPERTY
Grad RMS
SciTegic.value.DoubleValue
0.000000

@<SCITEGIC>MOL_PROPERTY
U
SciTegic.value.DoubleValue
10.045

@<SCITEGIC>MOL_PROPERTY
W
SciTegic.value.DoubleValue
-61.037

@<SCITEGIC>MOL_PROPERTY
W(PB)
SciTegic.value.DoubleValue
-63.303

@<SCITEGIC>MOL_PROPERTY
W(SA)
SciTegic.value.DoubleValue
2.266

@<SCITEGIC>MOL_PROPERTY
Valence
SciTegic.value.DoubleValue
10.100

@<SCITEGIC>MOL_PROPERTY
Coulomb
SciTegic.value.DoubleValue
-0.883

@<SCITEGIC>MOL_PROPERTY
VdW
SciTegic.value.DoubleValue
0.828

@<SCITEGIC>MOL_PROPERTY
VdW6
SciTegic.value.DoubleValue
-8.177

@<SCITEGIC>MOL_PROPERTY
VdW12
SciTegic.value.DoubleValue
9.005

@<SCITEGIC>MOL_PROPERTY
Bond
SciTegic.value.DoubleValue
0.182

@<SCITEGIC>MOL_PROPERTY
Angle
SciTegic.value.DoubleValue
2.988

@<SCITEGIC>MOL_PROPERTY
Pdih
SciTegic.value.DoubleValue
6.930

@<SCITEGIC>MOL_PROPERTY
Idih
SciTegic.value.DoubleValue
0.001

@<SCITEGIC>MOL_PROPERTY
Tether
SciTegic.value.DoubleValue
0.000

@<TRIPOS>MOLECULE
guest-s21_confgen4.mol2 : confsearch ligand conformer 933
          22          21           1
SMALL
USER_CHARGES
 
@<TRIPOS>ATOM
       1    C1      21.413542   17.060967   20.022048 C.2        1 MOL1         0.6145
       2    O1      22.357087   16.488655   20.530724 O.co2      1 MOL1        -0.6735
       3    O2      21.154902   17.008350   18.835910 O.co2      1 MOL1        -0.6735
       4    C2      20.518138   17.910200   20.917065 C.3        1 MOL1        -0.1985
       5    H1      20.481603   17.429182   21.900944 H          1 MOL1         0.0740
       6    H2      19.503706   17.890953   20.501328 H          1 MOL1         0.0740
       7    C3      21.015553   19.371693   21.050324 C.3        1 MOL1        -0.1882
       8    H3      21.998388   19.375387   21.541523 H          1 MOL1         0.0742
       9    H4      21.173671   19.782781   20.043632 H          1 MOL1         0.0742
      10    C4      20.048278   20.308300   21.817016 C.3        1 MOL1        -0.1880
      11    H5      19.094181   20.388368   21.278276 H          1 MOL1         0.0742
      12    H6      20.484143   21.316649   21.802875 H          1 MOL1         0.0742
      13    C5      19.799888   19.910838   23.294188 C.3        1 MOL1        -0.1880
      14    H7      20.670355   19.370893   23.691315 H          1 MOL1         0.0742
      15    H8      19.711427   20.828743   23.891363 H          1 MOL1         0.0742
      16    C6      18.511822   19.079912   23.497180 C.3        1 MOL1        -0.1856
      17    H9      18.543399   18.164597   22.894216 H          1 MOL1         0.0742
      18    H10     17.643975   19.656312   23.148179 H          1 MOL1         0.0742
      19    C7      18.309698   18.703294   24.978611 C.3        1 MOL1        -0.2871
      20    H11     19.148121   18.097879   25.347229 H          1 MOL1         0.0754
      21    H12     17.388447   18.120409   25.107350 H          1 MOL1         0.0754
      22    H13     18.233145   19.601213   25.605678 H          1 MOL1         0.0754
@<TRIPOS>BOND
    1     1     2    1
    2     1     3    2
    3     1     4    1
    4     4     5    1
    5     4     6    1
    6     4     7    1
    7     7     8    1
    8     7     9    1
    9     7    10    1
   10    10    11    1
   11    10    12    1
   12    10    13    1
   13    13    14    1
   14    13    15    1
   15    13    16    1
   16    16    17    1
   17    16    18    1
   18    16    19    1
   19    19    20    1
   20    19    21    1
   21    19    22    1
@<TRIPOS>SUBSTRUCTURE
       1 MOL1            1 RESIDUE      1      MOL     
@<SCITEGIC>MOL_PROPERTY
VConf Rank
SciTegic.value.IntegerValue
933

@<SCITEGIC>MOL_PROPERTY
Conf_Id
SciTegic.value.IntegerValue
6

@<SCITEGIC>MOL_PROPERTY
Delta U+W
SciTegic.value.DoubleValue
2.118

@<SCITEGIC>MOL_PROPERTY
U+W
SciTegic.value.DoubleValue
-51.042

@<SCITEGIC>MOL_PROPERTY
Grad RMS
SciTegic.value.DoubleValue
0.000000

@<SCITEGIC>MOL_PROPERTY
U
SciTegic.value.DoubleValue
10.045

@<SCITEGIC>MOL_PROPERTY
W
SciTegic.value.DoubleValue
-61.086

@<SCITEGIC>MOL_PROPERTY
W(PB)
SciTegic.value.DoubleValue
-63.356

@<SCITEGIC>MOL_PROPERTY
W(SA)
SciTegic.value.DoubleValue
2.270

@<SCITEGIC>MOL_PROPERTY
Valence
SciTegic.value.DoubleValue
10.100

@<SCITEGIC>MOL_PROPERTY
Coulomb
SciTegic.value.DoubleValue
-0.883

@<SCITEGIC>MOL_PROPERTY
VdW
SciTegic.value.DoubleValue
0.828

@<SCITEGIC>MOL_PROPERTY
VdW6
SciTegic.value.DoubleValue
-8.177

@<SCITEGIC>MOL_PROPERTY
VdW12
SciTegic.value.DoubleValue
9.004

@<SCITEGIC>MOL_PROPERTY
Bond
SciTegic.value.DoubleValue
0.182

@<SCITEGIC>MOL_PROPERTY
Angle
SciTegic.value.DoubleValue
2.988

@<SCITEGIC>MOL_PROPERTY
Pdih
SciTegic.value.DoubleValue
6.930

@<SCITEGIC>MOL_PROPERTY
Idih
SciTegic.value.DoubleValue
0.001

@<SCITEGIC>MOL_PROPERTY
Tether
SciTegic.value.DoubleValue
0.000

@<TRIPOS>MOLECULE
guest-s21_confgen4.mol2 : confsearch ligand conformer 934
          22          21           1
SMALL
USER_CHARGES
 
@<TRIPOS>ATOM
       1    C1      20.367581   18.120186   20.140663 C.2        1 MOL1         0.6145
       2    O1      21.477091   18.569920   19.930372 O.co2      1 MOL1        -0.6735
       3    O2      19.368475   18.504547   19.565242 O.co2      1 MOL1        -0.6735
       4    C2      20.229410   16.962768   21.127956 C.3        1 MOL1        -0.1985
       5    H1      20.798048   16.126905   20.704261 H          1 MOL1         0.0740
       6    H2      19.180379   16.644380   21.159677 H          1 MOL1         0.0740
       7    C3      20.748481   17.250443   22.564929 C.3        1 MOL1        -0.1882
       8    H3      20.940626   16.286472   23.055095 H          1 MOL1         0.0742
       9    H4      21.719033   17.763570   22.516961 H          1 MOL1         0.0742
      10    C4      19.769559   18.048354   23.461568 C.3        1 MOL1        -0.1880
      11    H5      20.170699   18.054586   24.484320 H          1 MOL1         0.0742
      12    H6      18.804615   17.525676   23.511772 H          1 MOL1         0.0742
      13    C5      19.546329   19.508567   23.007198 C.3        1 MOL1        -0.1880
      14    H7      20.516969   20.001133   22.857920 H          1 MOL1         0.0742
      15    H8      19.026445   19.523305   22.040985 H          1 MOL1         0.0742
      16    C6      18.714850   20.305029   24.034932 C.3        1 MOL1        -0.1856
      17    H9      19.227955   20.306624   25.006568 H          1 MOL1         0.0742
      18    H10     17.744347   19.812565   24.186641 H          1 MOL1         0.0742
      19    C7      18.485536   21.758856   23.575345 C.3        1 MOL1        -0.2871
      20    H11     19.440528   22.284756   23.445772 H          1 MOL1         0.0754
      21    H12     17.892342   22.310214   24.316391 H          1 MOL1         0.0754
      22    H13     17.946184   21.787673   22.619431 H          1 MOL1         0.0754
@<TRIPOS>BOND
    1     1     2    1
    2     1     3    2
    3     1     4    1
    4     4     5    1
    5     4     6    1
    6     4     7    1
    7     7     8    1
    8     7     9    1
    9     7    10    1
   10    10    11    1
   11    10    12    1
   12    10    13    1
   13    13    14    1
   14    13    15    1
   15    13    16    1
   16    16    17    1
   17    16    18    1
   18    16    19    1
   19    19    20    1
   20    19    21    1
   21    19    22    1
@<TRIPOS>SUBSTRUCTURE
       1 MOL1            1 RESIDUE      1      MOL     
@<SCITEGIC>MOL_PROPERTY
VConf Rank
SciTegic.value.IntegerValue
934

@<SCITEGIC>MOL_PROPERTY
Conf_Id
SciTegic.value.IntegerValue
8

@<SCITEGIC>MOL_PROPERTY
Delta U+W
SciTegic.value.DoubleValue
1.886

@<SCITEGIC>MOL_PROPERTY
U+W
SciTegic.value.DoubleValue
-51.274

@<SCITEGIC>MOL_PROPERTY
Grad RMS
SciTegic.value.DoubleValue
0.000000

@<SCITEGIC>MOL_PROPERTY
U
SciTegic.value.DoubleValue
11.237

@<SCITEGIC>MOL_PROPERTY
W
SciTegic.value.DoubleValue
-62.510

@<SCITEGIC>MOL_PROPERTY
W(PB)
SciTegic.value.DoubleValue
-64.777

@<SCITEGIC>MOL_PROPERTY
W(SA)
SciTegic.value.DoubleValue
2.267

@<SCITEGIC>MOL_PROPERTY
Valence
SciTegic.value.DoubleValue
9.029

@<SCITEGIC>MOL_PROPERTY
Coulomb
SciTegic.value.DoubleValue
1.667

@<SCITEGIC>MOL_PROPERTY
VdW
SciTegic.value.DoubleValue
0.540

@<SCITEGIC>MOL_PROPERTY
VdW6
SciTegic.value.DoubleValue
-8.825

@<SCITEGIC>MOL_PROPERTY
VdW12
SciTegic.value.DoubleValue
9.365

@<SCITEGIC>MOL_PROPERTY
Bond
SciTegic.value.DoubleValue
0.186

@<SCITEGIC>MOL_PROPERTY
Angle
SciTegic.value.DoubleValue
3.195

@<SCITEGIC>MOL_PROPERTY
Pdih
SciTegic.value.DoubleValue
5.642

@<SCITEGIC>MOL_PROPERTY
Idih
SciTegic.value.DoubleValue
0.007

@<SCITEGIC>MOL_PROPERTY
Tether
SciTegic.value.DoubleValue
0.000

@<TRIPOS>MOLECULE
guest-s21_confgen4.mol2 : confsearch ligand conformer 935
          22          21           1
SMALL
USER_CHARGES
 
@<TRIPOS>ATOM
       1    C1      20.570150   16.586328   24.240538 C.2        1 MOL1         0.6145
       2    O1      21.602739   16.505471   23.604939 O.co2      1 MOL1        -0.6735
       3    O2      19.883674   15.626672   24.532288 O.co2      1 MOL1        -0.6735
       4    C2      20.124725   17.963090   24.725602 C.3        1 MOL1        -0.1985
       5    H1      20.966565   18.658197   24.631579 H          1 MOL1         0.0740
       6    H2      19.913275   17.877474   25.797834 H          1 MOL1         0.0740
       7    C3      18.869118   18.517760   23.998320 C.3        1 MOL1        -0.1882
       8    H3      18.027756   17.835249   24.181663 H          1 MOL1         0.0742
       9    H4      18.587751   19.479640   24.447710 H          1 MOL1         0.0742
      10    C4      19.036963   18.699268   22.469394 C.3        1 MOL1        -0.1880
      11    H5      18.066484   19.001465   22.056064 H          1 MOL1         0.0742
      12    H6      19.283957   17.734224   22.006138 H          1 MOL1         0.0742
      13    C5      20.109886   19.748239   22.087372 C.3        1 MOL1        -0.1880
      14    H7      19.877140   20.709718   22.564738 H          1 MOL1         0.0742
      15    H8      21.083944   19.429944   22.480859 H          1 MOL1         0.0742
      16    C6      20.255855   19.949577   20.560887 C.3        1 MOL1        -0.1856
      17    H9      20.473437   18.986277   20.079132 H          1 MOL1         0.0742
      18    H10     21.126314   20.593262   20.373410 H          1 MOL1         0.0742
      19    C7      19.014831   20.592497   19.904132 C.3        1 MOL1        -0.2871
      20    H11     18.142569   19.929481   19.958144 H          1 MOL1         0.0754
      21    H12     19.207173   20.801023   18.843745 H          1 MOL1         0.0754
      22    H13     18.758198   21.540975   20.393649 H          1 MOL1         0.0754
@<TRIPOS>BOND
    1     1     2    1
    2     1     3    2
    3     1     4    1
    4     4     5    1
    5     4     6    1
    6     4     7    1
    7     7     8    1
    8     7     9    1
    9     7    10    1
   10    10    11    1
   11    10    12    1
   12    10    13    1
   13    13    14    1
   14    13    15    1
   15    13    16    1
   16    16    17    1
   17    16    18    1
   18    16    19    1
   19    19    20    1
   20    19    21    1
   21    19    22    1
@<TRIPOS>SUBSTRUCTURE
       1 MOL1            1 RESIDUE      1      MOL     
@<SCITEGIC>MOL_PROPERTY
VConf Rank
SciTegic.value.IntegerValue
935

@<SCITEGIC>MOL_PROPERTY
Conf_Id
SciTegic.value.IntegerValue
93

@<SCITEGIC>MOL_PROPERTY
Delta U+W
SciTegic.value.DoubleValue
1.836

@<SCITEGIC>MOL_PROPERTY
U+W
SciTegic.value.DoubleValue
-51.323

@<SCITEGIC>MOL_PROPERTY
Grad RMS
SciTegic.value.DoubleValue
0.000000

@<SCITEGIC>MOL_PROPERTY
U
SciTegic.value.DoubleValue
10.427

@<SCITEGIC>MOL_PROPERTY
W
SciTegic.value.DoubleValue
-61.751

@<SCITEGIC>MOL_PROPERTY
W(PB)
SciTegic.value.DoubleValue
-63.980

@<SCITEGIC>MOL_PROPERTY
W(SA)
SciTegic.value.DoubleValue
2.230

@<SCITEGIC>MOL_PROPERTY
Valence
SciTegic.value.DoubleValue
8.446

@<SCITEGIC>MOL_PROPERTY
Coulomb
SciTegic.value.DoubleValue
1.306

@<SCITEGIC>MOL_PROPERTY
VdW
SciTegic.value.DoubleValue
0.676

@<SCITEGIC>MOL_PROPERTY
VdW6
SciTegic.value.DoubleValue
-8.928

@<SCITEGIC>MOL_PROPERTY
VdW12
SciTegic.value.DoubleValue
9.604

@<SCITEGIC>MOL_PROPERTY
Bond
SciTegic.value.DoubleValue
0.209

@<SCITEGIC>MOL_PROPERTY
Angle
SciTegic.value.DoubleValue
3.066

@<SCITEGIC>MOL_PROPERTY
Pdih
SciTegic.value.DoubleValue
5.170

@<SCITEGIC>MOL_PROPERTY
Idih
SciTegic.value.DoubleValue
0.001

@<SCITEGIC>MOL_PROPERTY
Tether
SciTegic.value.DoubleValue
0.000

@<TRIPOS>MOLECULE
guest-s21_confgen4.mol2 : confsearch ligand conformer 936
          22          21           1
SMALL
USER_CHARGES
 
@<TRIPOS>ATOM
       1    C1      18.965960   21.514101   20.644626 C.2        1 MOL1         0.6145
       2    O1      19.295148   21.649301   19.482447 O.co2      1 MOL1        -0.6735
       3    O2      19.302362   22.274250   21.531065 O.co2      1 MOL1        -0.6735
       4    C2      18.056079   20.342273   21.002538 C.3        1 MOL1        -0.1985
       5    H1      17.213799   20.358398   20.301092 H          1 MOL1         0.0740
       6    H2      17.632323   20.517525   21.997740 H          1 MOL1         0.0740
       7    C3      18.751190   18.954591   20.936902 C.3        1 MOL1        -0.1882
       8    H3      18.012398   18.170821   21.151900 H          1 MOL1         0.0742
       9    H4      19.091680   18.781478   19.906647 H          1 MOL1         0.0742
      10    C4      19.959012   18.792417   21.892725 C.3        1 MOL1        -0.1880
      11    H5      20.719611   19.550630   21.661361 H          1 MOL1         0.0742
      12    H6      20.421844   17.818261   21.690727 H          1 MOL1         0.0742
      13    C5      19.576096   18.881354   23.390359 C.3        1 MOL1        -0.1880
      14    H7      19.136670   19.866424   23.594016 H          1 MOL1         0.0742
      15    H8      18.801298   18.137831   23.621346 H          1 MOL1         0.0742
      16    C6      20.778495   18.690078   24.344112 C.3        1 MOL1        -0.1856
      17    H9      20.451464   18.910117   25.369690 H          1 MOL1         0.0742
      18    H10     21.561615   19.422758   24.104772 H          1 MOL1         0.0742
      19    C7      21.370242   17.264101   24.308995 C.3        1 MOL1        -0.2871
      20    H11     21.821898   17.040200   23.334713 H          1 MOL1         0.0754
      21    H12     20.596256   16.512411   24.511495 H          1 MOL1         0.0754
      22    H13     22.153739   17.155490   25.070069 H          1 MOL1         0.0754
@<TRIPOS>BOND
    1     1     2    1
    2     1     3    2
    3     1     4    1
    4     4     5    1
    5     4     6    1
    6     4     7    1
    7     7     8    1
    8     7     9    1
    9     7    10    1
   10    10    11    1
   11    10    12    1
   12    10    13    1
   13    13    14    1
   14    13    15    1
   15    13    16    1
   16    16    17    1
   17    16    18    1
   18    16    19    1
   19    19    20    1
   20    19    21    1
   21    19    22    1
@<TRIPOS>SUBSTRUCTURE
       1 MOL1            1 RESIDUE      1      MOL     
@<SCITEGIC>MOL_PROPERTY
VConf Rank
SciTegic.value.IntegerValue
936

@<SCITEGIC>MOL_PROPERTY
Conf_Id
SciTegic.value.IntegerValue
70

@<SCITEGIC>MOL_PROPERTY
Delta U+W
SciTegic.value.DoubleValue
1.803

@<SCITEGIC>MOL_PROPERTY
U+W
SciTegic.value.DoubleValue
-51.356

@<SCITEGIC>MOL_PROPERTY
Grad RMS
SciTegic.value.DoubleValue
0.000000

@<SCITEGIC>MOL_PROPERTY
U
SciTegic.value.DoubleValue
10.428

@<SCITEGIC>MOL_PROPERTY
W
SciTegic.value.DoubleValue
-61.784

@<SCITEGIC>MOL_PROPERTY
W(PB)
SciTegic.value.DoubleValue
-64.014

@<SCITEGIC>MOL_PROPERTY
W(SA)
SciTegic.value.DoubleValue
2.230

@<SCITEGIC>MOL_PROPERTY
Valence
SciTegic.value.DoubleValue
8.445

@<SCITEGIC>MOL_PROPERTY
Coulomb
SciTegic.value.DoubleValue
1.306

@<SCITEGIC>MOL_PROPERTY
VdW
SciTegic.value.DoubleValue
0.676

@<SCITEGIC>MOL_PROPERTY
VdW6
SciTegic.value.DoubleValue
-8.929

@<SCITEGIC>MOL_PROPERTY
VdW12
SciTegic.value.DoubleValue
9.605

@<SCITEGIC>MOL_PROPERTY
Bond
SciTegic.value.DoubleValue
0.209

@<SCITEGIC>MOL_PROPERTY
Angle
SciTegic.value.DoubleValue
3.066

@<SCITEGIC>MOL_PROPERTY
Pdih
SciTegic.value.DoubleValue
5.170

@<SCITEGIC>MOL_PROPERTY
Idih
SciTegic.value.DoubleValue
0.001

@<SCITEGIC>MOL_PROPERTY
Tether
SciTegic.value.DoubleValue
0.000

@<TRIPOS>MOLECULE
guest-s21_confgen4.mol2 : confsearch ligand conformer 937
          22          21           1
SMALL
USER_CHARGES
 
@<TRIPOS>ATOM
       1    C1      17.272283   16.761631   22.033341 C.2        1 MOL1         0.6145
       2    O1      17.154226   16.288223   23.146383 O.co2      1 MOL1        -0.6735
       3    O2      17.509260   16.099038   21.042538 O.co2      1 MOL1        -0.6735
       4    C2      17.091831   18.268230   21.869962 C.3        1 MOL1        -0.1985
       5    H1      16.203655   18.556818   22.444330 H          1 MOL1         0.0740
       6    H2      16.872109   18.482396   20.817016 H          1 MOL1         0.0740
       7    C3      18.309402   19.103267   22.344532 C.3        1 MOL1        -0.1882
       8    H3      18.044784   20.168789   22.314423 H          1 MOL1         0.0742
       9    H4      18.521597   18.857818   23.393512 H          1 MOL1         0.0742
      10    C4      19.566348   18.864250   21.474176 C.3        1 MOL1        -0.1880
      11    H5      19.307229   19.031051   20.419721 H          1 MOL1         0.0742
      12    H6      19.880650   17.814329   21.552831 H          1 MOL1         0.0742
      13    C5      20.753533   19.786308   21.840140 C.3        1 MOL1        -0.1880
      14    H7      21.551403   19.636454   21.099979 H          1 MOL1         0.0742
      15    H8      20.444026   20.836911   21.754680 H          1 MOL1         0.0742
      16    C6      21.323900   19.524181   23.252280 C.3        1 MOL1        -0.1856
      17    H9      21.584293   18.461705   23.355270 H          1 MOL1         0.0742
      18    H10     20.564069   19.743172   24.013896 H          1 MOL1         0.0742
      19    C7      22.572332   20.386568   23.526942 C.3        1 MOL1        -0.2871
      20    H11     23.369652   20.165396   22.805337 H          1 MOL1         0.0754
      21    H12     22.963282   20.191335   24.533969 H          1 MOL1         0.0754
      22    H13     22.333587   21.455928   23.457347 H          1 MOL1         0.0754
@<TRIPOS>BOND
    1     1     2    1
    2     1     3    2
    3     1     4    1
    4     4     5    1
    5     4     6    1
    6     4     7    1
    7     7     8    1
    8     7     9    1
    9     7    10    1
   10    10    11    1
   11    10    12    1
   12    10    13    1
   13    13    14    1
   14    13    15    1
   15    13    16    1
   16    16    17    1
   17    16    18    1
   18    16    19    1
   19    19    20    1
   20    19    21    1
   21    19    22    1
@<TRIPOS>SUBSTRUCTURE
       1 MOL1            1 RESIDUE      1      MOL     
@<SCITEGIC>MOL_PROPERTY
VConf Rank
SciTegic.value.IntegerValue
937

@<SCITEGIC>MOL_PROPERTY
Conf_Id
SciTegic.value.IntegerValue
85

@<SCITEGIC>MOL_PROPERTY
Delta U+W
SciTegic.value.DoubleValue
0.707

@<SCITEGIC>MOL_PROPERTY
U+W
SciTegic.value.DoubleValue
-52.452

@<SCITEGIC>MOL_PROPERTY
Grad RMS
SciTegic.value.DoubleValue
0.000000

@<SCITEGIC>MOL_PROPERTY
U
SciTegic.value.DoubleValue
8.925

@<SCITEGIC>MOL_PROPERTY
W
SciTegic.value.DoubleValue
-61.378

@<SCITEGIC>MOL_PROPERTY
W(PB)
SciTegic.value.DoubleValue
-63.661

@<SCITEGIC>MOL_PROPERTY
W(SA)
SciTegic.value.DoubleValue
2.283

@<SCITEGIC>MOL_PROPERTY
Valence
SciTegic.value.DoubleValue
7.881

@<SCITEGIC>MOL_PROPERTY
Coulomb
SciTegic.value.DoubleValue
0.349

@<SCITEGIC>MOL_PROPERTY
VdW
SciTegic.value.DoubleValue
0.695

@<SCITEGIC>MOL_PROPERTY
VdW6
SciTegic.value.DoubleValue
-8.049

@<SCITEGIC>MOL_PROPERTY
VdW12
SciTegic.value.DoubleValue
8.743

@<SCITEGIC>MOL_PROPERTY
Bond
SciTegic.value.DoubleValue
0.156

@<SCITEGIC>MOL_PROPERTY
Angle
SciTegic.value.DoubleValue
2.660

@<SCITEGIC>MOL_PROPERTY
Pdih
SciTegic.value.DoubleValue
5.064

@<SCITEGIC>MOL_PROPERTY
Idih
SciTegic.value.DoubleValue
0.001

@<SCITEGIC>MOL_PROPERTY
Tether
SciTegic.value.DoubleValue
0.000

@<TRIPOS>MOLECULE
guest-s21_confgen4.mol2 : confsearch ligand conformer 938
          22          21           1
SMALL
USER_CHARGES
 
@<TRIPOS>ATOM
       1    C1      23.079415   18.164826   22.909671 C.2        1 MOL1         0.6145
       2    O1      23.383240   18.231186   24.084502 O.co2      1 MOL1        -0.6735
       3    O2      23.387494   17.237418   22.187193 O.co2      1 MOL1        -0.6735
       4    C2      22.287777   19.318903   22.300730 C.3        1 MOL1        -0.1985
       5    H1      22.765192   19.575465   21.347713 H          1 MOL1         0.0740
       6    H2      22.388028   20.195542   22.952120 H          1 MOL1         0.0740
       7    C3      20.789246   19.000309   22.058676 C.3        1 MOL1        -0.1882
       8    H3      20.350023   19.823430   21.481215 H          1 MOL1         0.0742
       9    H4      20.703370   18.093427   21.444291 H          1 MOL1         0.0742
      10    C4      19.998714   18.820885   23.375470 C.3        1 MOL1        -0.1880
      11    H5      20.018385   19.760774   23.943733 H          1 MOL1         0.0742
      12    H6      20.505346   18.073707   24.001483 H          1 MOL1         0.0742
      13    C5      18.530071   18.368015   23.179205 C.3        1 MOL1        -0.1880
      14    H7      18.501604   17.382914   22.693723 H          1 MOL1         0.0742
      15    H8      18.094282   18.221147   24.176894 H          1 MOL1         0.0742
      16    C6      17.638459   19.372740   22.407545 C.3        1 MOL1        -0.1856
      17    H9      18.012387   20.396900   22.543504 H          1 MOL1         0.0742
      18    H10     16.630561   19.355370   22.844738 H          1 MOL1         0.0742
      19    C7      17.511413   19.043625   20.903360 C.3        1 MOL1        -0.2871
      20    H11     18.483869   19.058364   20.398369 H          1 MOL1         0.0754
      21    H12     16.863187   19.775117   20.403817 H          1 MOL1         0.0754
      22    H13     17.069659   18.049280   20.757695 H          1 MOL1         0.0754
@<TRIPOS>BOND
    1     1     2    1
    2     1     3    2
    3     1     4    1
    4     4     5    1
    5     4     6    1
    6     4     7    1
    7     7     8    1
    8     7     9    1
    9     7    10    1
   10    10    11    1
   11    10    12    1
   12    10    13    1
   13    13    14    1
   14    13    15    1
   15    13    16    1
   16    16    17    1
   17    16    18    1
   18    16    19    1
   19    19    20    1
   20    19    21    1
   21    19    22    1
@<TRIPOS>SUBSTRUCTURE
       1 MOL1            1 RESIDUE      1      MOL     
@<SCITEGIC>MOL_PROPERTY
VConf Rank
SciTegic.value.IntegerValue
938

@<SCITEGIC>MOL_PROPERTY
Conf_Id
SciTegic.value.IntegerValue
82

@<SCITEGIC>MOL_PROPERTY
Delta U+W
SciTegic.value.DoubleValue
3.438

@<SCITEGIC>MOL_PROPERTY
U+W
SciTegic.value.DoubleValue
-49.721

@<SCITEGIC>MOL_PROPERTY
Grad RMS
SciTegic.value.DoubleValue
0.000000

@<SCITEGIC>MOL_PROPERTY
U
SciTegic.value.DoubleValue
11.773

@<SCITEGIC>MOL_PROPERTY
W
SciTegic.value.DoubleValue
-61.495

@<SCITEGIC>MOL_PROPERTY
W(PB)
SciTegic.value.DoubleValue
-63.749

@<SCITEGIC>MOL_PROPERTY
W(SA)
SciTegic.value.DoubleValue
2.254

@<SCITEGIC>MOL_PROPERTY
Valence
SciTegic.value.DoubleValue
10.419

@<SCITEGIC>MOL_PROPERTY
Coulomb
SciTegic.value.DoubleValue
0.565

@<SCITEGIC>MOL_PROPERTY
VdW
SciTegic.value.DoubleValue
0.789

@<SCITEGIC>MOL_PROPERTY
VdW6
SciTegic.value.DoubleValue
-8.847

@<SCITEGIC>MOL_PROPERTY
VdW12
SciTegic.value.DoubleValue
9.636

@<SCITEGIC>MOL_PROPERTY
Bond
SciTegic.value.DoubleValue
0.200

@<SCITEGIC>MOL_PROPERTY
Angle
SciTegic.value.DoubleValue
3.187

@<SCITEGIC>MOL_PROPERTY
Pdih
SciTegic.value.DoubleValue
7.032

@<SCITEGIC>MOL_PROPERTY
Idih
SciTegic.value.DoubleValue
0.001

@<SCITEGIC>MOL_PROPERTY
Tether
SciTegic.value.DoubleValue
0.000

@<TRIPOS>MOLECULE
guest-s21_confgen4.mol2 : confsearch ligand conformer 939
          22          21           1
SMALL
USER_CHARGES
 
@<TRIPOS>ATOM
       1    C1      18.674092   18.501054   19.314942 C.2        1 MOL1         0.6145
       2    O1      18.194787   17.386624   19.242234 O.co2      1 MOL1        -0.6735
       3    O2      18.116417   19.500448   18.906103 O.co2      1 MOL1        -0.6735
       4    C2      20.061945   18.648317   19.932661 C.3        1 MOL1        -0.1985
       5    H1      20.484718   19.610958   19.620505 H          1 MOL1         0.0740
       6    H2      20.697139   17.867133   19.498758 H          1 MOL1         0.0740
       7    C3      20.082134   18.530934   21.479110 C.3        1 MOL1        -0.1882
       8    H3      19.613372   17.583685   21.779543 H          1 MOL1         0.0742
       9    H4      21.127888   18.491707   21.808906 H          1 MOL1         0.0742
      10    C4      19.370700   19.714370   22.175113 C.3        1 MOL1        -0.1880
      11    H5      18.358578   19.820641   21.761402 H          1 MOL1         0.0742
      12    H6      19.898408   20.648040   21.937448 H          1 MOL1         0.0742
      13    C5      19.249050   19.568257   23.712767 C.3        1 MOL1        -0.1880
      14    H7      18.681515   20.433292   24.082205 H          1 MOL1         0.0742
      15    H8      18.642560   18.686305   23.960270 H          1 MOL1         0.0742
      16    C6      20.600086   19.520171   24.469265 C.3        1 MOL1        -0.1856
      17    H9      20.487540   20.053927   25.423065 H          1 MOL1         0.0742
      18    H10     21.372141   20.061963   23.905701 H          1 MOL1         0.0742
      19    C7      21.072965   18.082586   24.780327 C.3        1 MOL1        -0.2871
      20    H11     20.339350   17.557513   25.405781 H          1 MOL1         0.0754
      21    H12     22.025790   18.101345   25.324929 H          1 MOL1         0.0754
      22    H13     21.220794   17.494613   23.867453 H          1 MOL1         0.0754
@<TRIPOS>BOND
    1     1     2    1
    2     1     3    2
    3     1     4    1
    4     4     5    1
    5     4     6    1
    6     4     7    1
    7     7     8    1
    8     7     9    1
    9     7    10    1
   10    10    11    1
   11    10    12    1
   12    10    13    1
   13    13    14    1
   14    13    15    1
   15    13    16    1
   16    16    17    1
   17    16    18    1
   18    16    19    1
   19    19    20    1
   20    19    21    1
   21    19    22    1
@<TRIPOS>SUBSTRUCTURE
       1 MOL1            1 RESIDUE      1      MOL     
@<SCITEGIC>MOL_PROPERTY
VConf Rank
SciTegic.value.IntegerValue
939

@<SCITEGIC>MOL_PROPERTY
Conf_Id
SciTegic.value.IntegerValue
94

@<SCITEGIC>MOL_PROPERTY
Delta U+W
SciTegic.value.DoubleValue
3.471

@<SCITEGIC>MOL_PROPERTY
U+W
SciTegic.value.DoubleValue
-49.688

@<SCITEGIC>MOL_PROPERTY
Grad RMS
SciTegic.value.DoubleValue
0.000000

@<SCITEGIC>MOL_PROPERTY
U
SciTegic.value.DoubleValue
11.773

@<SCITEGIC>MOL_PROPERTY
W
SciTegic.value.DoubleValue
-61.461

@<SCITEGIC>MOL_PROPERTY
W(PB)
SciTegic.value.DoubleValue
-63.710

@<SCITEGIC>MOL_PROPERTY
W(SA)
SciTegic.value.DoubleValue
2.248

@<SCITEGIC>MOL_PROPERTY
Valence
SciTegic.value.DoubleValue
10.419

@<SCITEGIC>MOL_PROPERTY
Coulomb
SciTegic.value.DoubleValue
0.566

@<SCITEGIC>MOL_PROPERTY
VdW
SciTegic.value.DoubleValue
0.789

@<SCITEGIC>MOL_PROPERTY
VdW6
SciTegic.value.DoubleValue
-8.847

@<SCITEGIC>MOL_PROPERTY
VdW12
SciTegic.value.DoubleValue
9.636

@<SCITEGIC>MOL_PROPERTY
Bond
SciTegic.value.DoubleValue
0.200

@<SCITEGIC>MOL_PROPERTY
Angle
SciTegic.value.DoubleValue
3.187

@<SCITEGIC>MOL_PROPERTY
Pdih
SciTegic.value.DoubleValue
7.032

@<SCITEGIC>MOL_PROPERTY
Idih
SciTegic.value.DoubleValue
0.001

@<SCITEGIC>MOL_PROPERTY
Tether
SciTegic.value.DoubleValue
0.000

@<TRIPOS>MOLECULE
guest-s21_confgen4.mol2 : confsearch ligand conformer 940
          22          21           1
SMALL
USER_CHARGES
 
@<TRIPOS>ATOM
       1    C1      21.187908   19.944727   25.269034 C.2        1 MOL1         0.6145
       2    O1      21.052276   19.510354   26.395810 O.co2      1 MOL1        -0.6735
       3    O2      21.480214   21.098373   25.023610 O.co2      1 MOL1        -0.6735
       4    C2      20.959840   18.994450   24.099038 C.3        1 MOL1        -0.1985
       5    H1      21.270176   17.989855   24.410027 H          1 MOL1         0.0740
       6    H2      21.624262   19.303122   23.283992 H          1 MOL1         0.0740
       7    C3      19.484975   18.974605   23.620674 C.3        1 MOL1        -0.1882
       8    H3      18.838758   18.742814   24.478447 H          1 MOL1         0.0742
       9    H4      19.194196   19.978578   23.284055 H          1 MOL1         0.0742
      10    C4      19.211797   17.937953   22.502130 C.3        1 MOL1        -0.1880
      11    H5      18.141044   17.951062   22.259665 H          1 MOL1         0.0742
      12    H6      19.415271   16.932117   22.893844 H          1 MOL1         0.0742
      13    C5      20.033597   18.137853   21.201419 C.3        1 MOL1        -0.1880
      14    H7      21.096629   17.962704   21.412456 H          1 MOL1         0.0742
      15    H8      19.742748   17.361272   20.481090 H          1 MOL1         0.0742
      16    C6      19.877262   19.524297   20.529659 C.3        1 MOL1        -0.1856
      17    H9      20.521270   19.557184   19.640232 H          1 MOL1         0.0742
      18    H10     20.244505   20.312884   21.199931 H          1 MOL1         0.0742
      19    C7      18.426118   19.835650   20.104165 C.3        1 MOL1        -0.2871
      20    H11     18.032852   19.050339   19.445696 H          1 MOL1         0.0754
      21    H12     18.381033   20.787950   19.560255 H          1 MOL1         0.0754
      22    H13     17.764432   19.918221   20.975548 H          1 MOL1         0.0754
@<TRIPOS>BOND
    1     1     2    1
    2     1     3    2
    3     1     4    1
    4     4     5    1
    5     4     6    1
    6     4     7    1
    7     7     8    1
    8     7     9    1
    9     7    10    1
   10    10    11    1
   11    10    12    1
   12    10    13    1
   13    13    14    1
   14    13    15    1
   15    13    16    1
   16    16    17    1
   17    16    18    1
   18    16    19    1
   19    19    20    1
   20    19    21    1
   21    19    22    1
@<TRIPOS>SUBSTRUCTURE
       1 MOL1            1 RESIDUE      1      MOL     
@<SCITEGIC>MOL_PROPERTY
VConf Rank
SciTegic.value.IntegerValue
940

@<SCITEGIC>MOL_PROPERTY
Conf_Id
SciTegic.value.IntegerValue
56

@<SCITEGIC>MOL_PROPERTY
Delta U+W
SciTegic.value.DoubleValue
0.853

@<SCITEGIC>MOL_PROPERTY
U+W
SciTegic.value.DoubleValue
-52.307

@<SCITEGIC>MOL_PROPERTY
Grad RMS
SciTegic.value.DoubleValue
0.000000

@<SCITEGIC>MOL_PROPERTY
U
SciTegic.value.DoubleValue
8.874

@<SCITEGIC>MOL_PROPERTY
W
SciTegic.value.DoubleValue
-61.181

@<SCITEGIC>MOL_PROPERTY
W(PB)
SciTegic.value.DoubleValue
-63.413

@<SCITEGIC>MOL_PROPERTY
W(SA)
SciTegic.value.DoubleValue
2.232

@<SCITEGIC>MOL_PROPERTY
Valence
SciTegic.value.DoubleValue
8.479

@<SCITEGIC>MOL_PROPERTY
Coulomb
SciTegic.value.DoubleValue
-0.357

@<SCITEGIC>MOL_PROPERTY
VdW
SciTegic.value.DoubleValue
0.753

@<SCITEGIC>MOL_PROPERTY
VdW6
SciTegic.value.DoubleValue
-9.081

@<SCITEGIC>MOL_PROPERTY
VdW12
SciTegic.value.DoubleValue
9.833

@<SCITEGIC>MOL_PROPERTY
Bond
SciTegic.value.DoubleValue
0.221

@<SCITEGIC>MOL_PROPERTY
Angle
SciTegic.value.DoubleValue
3.208

@<SCITEGIC>MOL_PROPERTY
Pdih
SciTegic.value.DoubleValue
5.050

@<SCITEGIC>MOL_PROPERTY
Idih
SciTegic.value.DoubleValue
0.000

@<SCITEGIC>MOL_PROPERTY
Tether
SciTegic.value.DoubleValue
0.000

@<TRIPOS>MOLECULE
guest-s21_confgen4.mol2 : confsearch ligand conformer 941
          22          21           1
SMALL
USER_CHARGES
 
@<TRIPOS>ATOM
       1    C1      20.348517   21.830028   19.354584 C.2        1 MOL1         0.6145
       2    O1      19.887566   22.699342   20.068881 O.co2      1 MOL1        -0.6735
       3    O2      20.752179   22.041534   18.228421 O.co2      1 MOL1        -0.6735
       4    C2      20.437432   20.392499   19.869492 C.3        1 MOL1        -0.1985
       5    H1      21.488770   20.087689   19.808265 H          1 MOL1         0.0740
       6    H2      19.878525   19.759550   19.170230 H          1 MOL1         0.0740
       7    C3      19.910657   20.171803   21.312478 C.3        1 MOL1        -0.1882
       8    H3      20.470547   20.813400   22.007003 H          1 MOL1         0.0742
       9    H4      18.858796   20.484783   21.368356 H          1 MOL1         0.0742
      10    C4      20.037727   18.696611   21.750855 C.3        1 MOL1        -0.1880
      11    H5      21.090081   18.386021   21.694157 H          1 MOL1         0.0742
      12    H6      19.477347   18.057165   21.055001 H          1 MOL1         0.0742
      13    C5      19.513097   18.479284   23.186418 C.3        1 MOL1        -0.1880
      14    H7      20.073158   19.118589   23.882657 H          1 MOL1         0.0742
      15    H8      18.460724   18.789717   23.243598 H          1 MOL1         0.0742
      16    C6      19.639836   17.005332   23.625171 C.3        1 MOL1        -0.1856
      17    H9      20.691626   16.691795   23.571234 H          1 MOL1         0.0742
      18    H10     19.079159   16.362884   22.932078 H          1 MOL1         0.0742
      19    C7      19.114824   16.792506   25.059188 C.3        1 MOL1        -0.2871
      20    H11     19.679459   17.400207   25.778420 H          1 MOL1         0.0754
      21    H12     19.212475   15.739775   25.354676 H          1 MOL1         0.0754
      22    H13     18.054907   17.068762   25.134457 H          1 MOL1         0.0754
@<TRIPOS>BOND
    1     1     2    1
    2     1     3    2
    3     1     4    1
    4     4     5    1
    5     4     6    1
    6     4     7    1
    7     7     8    1
    8     7     9    1
    9     7    10    1
   10    10    11    1
   11    10    12    1
   12    10    13    1
   13    13    14    1
   14    13    15    1
   15    13    16    1
   16    16    17    1
   17    16    18    1
   18    16    19    1
   19    19    20    1
   20    19    21    1
   21    19    22    1
@<TRIPOS>SUBSTRUCTURE
       1 MOL1            1 RESIDUE      1      MOL     
@<SCITEGIC>MOL_PROPERTY
VConf Rank
SciTegic.value.IntegerValue
941

@<SCITEGIC>MOL_PROPERTY
Conf_Id
SciTegic.value.IntegerValue
0

@<SCITEGIC>MOL_PROPERTY
Delta U+W
SciTegic.value.DoubleValue
0.000

@<SCITEGIC>MOL_PROPERTY
U+W
SciTegic.value.DoubleValue
-53.159

@<SCITEGIC>MOL_PROPERTY
Grad RMS
SciTegic.value.DoubleValue
0.000000

@<SCITEGIC>MOL_PROPERTY
U
SciTegic.value.DoubleValue
6.763

@<SCITEGIC>MOL_PROPERTY
W
SciTegic.value.DoubleValue
-59.922

@<SCITEGIC>MOL_PROPERTY
W(PB)
SciTegic.value.DoubleValue
-62.256

@<SCITEGIC>MOL_PROPERTY
W(SA)
SciTegic.value.DoubleValue
2.334

@<SCITEGIC>MOL_PROPERTY
Valence
SciTegic.value.DoubleValue
7.600

@<SCITEGIC>MOL_PROPERTY
Coulomb
SciTegic.value.DoubleValue
-2.139

@<SCITEGIC>MOL_PROPERTY
VdW
SciTegic.value.DoubleValue
1.302

@<SCITEGIC>MOL_PROPERTY
VdW6
SciTegic.value.DoubleValue
-6.786

@<SCITEGIC>MOL_PROPERTY
VdW12
SciTegic.value.DoubleValue
8.088

@<SCITEGIC>MOL_PROPERTY
Bond
SciTegic.value.DoubleValue
0.134

@<SCITEGIC>MOL_PROPERTY
Angle
SciTegic.value.DoubleValue
2.720

@<SCITEGIC>MOL_PROPERTY
Pdih
SciTegic.value.DoubleValue
4.746

@<SCITEGIC>MOL_PROPERTY
Idih
SciTegic.value.DoubleValue
0.000

@<SCITEGIC>MOL_PROPERTY
Tether
SciTegic.value.DoubleValue
0.000

@<TRIPOS>MOLECULE
guest-s21_confgen4.mol2 : confsearch ligand conformer 942
          22          21           1
SMALL
USER_CHARGES
 
@<TRIPOS>ATOM
       1    C1      19.311435   14.990436   22.358313 C.2        1 MOL1         0.6145
       2    O1      19.470933   14.415928   21.299572 O.co2      1 MOL1        -0.6735
       3    O2      18.529576   14.622580   23.212601 O.co2      1 MOL1        -0.6735
       4    C2      20.120905   16.255548   22.619972 C.3        1 MOL1        -0.1985
       5    H1      21.091391   16.148476   22.120616 H          1 MOL1         0.0740
       6    H2      20.315837   16.318588   23.697325 H          1 MOL1         0.0740
       7    C3      19.406421   17.539111   22.130046 C.3        1 MOL1        -0.1882
       8    H3      19.206813   17.454601   21.052741 H          1 MOL1         0.0742
       9    H4      18.431285   17.624709   22.629402 H          1 MOL1         0.0742
      10    C4      20.245733   18.805260   22.406278 C.3        1 MOL1        -0.1880
      11    H5      21.220244   18.715918   21.906758 H          1 MOL1         0.0742
      12    H6      20.444554   18.886049   23.483829 H          1 MOL1         0.0742
      13    C5      19.531008   20.083132   21.916885 C.3        1 MOL1        -0.1880
      14    H7      19.331997   20.002728   20.839363 H          1 MOL1         0.0742
      15    H8      18.556434   20.172833   22.416170 H          1 MOL1         0.0742
      16    C6      20.369229   21.349005   22.192603 C.3        1 MOL1        -0.1856
      17    H9      21.344250   21.263867   21.693041 H          1 MOL1         0.0742
      18    H10     20.568704   21.433971   23.269853 H          1 MOL1         0.0742
      19    C7      19.652088   22.622897   21.702452 C.3        1 MOL1        -0.2871
      20    H11     18.686715   22.750026   22.209700 H          1 MOL1         0.0754
      21    H12     19.467965   22.578548   20.621000 H          1 MOL1         0.0754
      22    H13     20.261760   23.512771   21.906210 H          1 MOL1         0.0754
@<TRIPOS>BOND
    1     1     2    1
    2     1     3    2
    3     1     4    1
    4     4     5    1
    5     4     6    1
    6     4     7    1
    7     7     8    1
    8     7     9    1
    9     7    10    1
   10    10    11    1
   11    10    12    1
   12    10    13    1
   13    13    14    1
   14    13    15    1
   15    13    16    1
   16    16    17    1
   17    16    18    1
   18    16    19    1
   19    19    20    1
   20    19    21    1
   21    19    22    1
@<TRIPOS>SUBSTRUCTURE
       1 MOL1            1 RESIDUE      1      MOL     
@<SCITEGIC>MOL_PROPERTY
VConf Rank
SciTegic.value.IntegerValue
942

@<SCITEGIC>MOL_PROPERTY
Conf_Id
SciTegic.value.IntegerValue
10

@<SCITEGIC>MOL_PROPERTY
Delta U+W
SciTegic.value.DoubleValue
-1.291

@<SCITEGIC>MOL_PROPERTY
U+W
SciTegic.value.DoubleValue
-54.451

@<SCITEGIC>MOL_PROPERTY
Grad RMS
SciTegic.value.DoubleValue
0.000000

@<SCITEGIC>MOL_PROPERTY
U
SciTegic.value.DoubleValue
5.779

@<SCITEGIC>MOL_PROPERTY
W
SciTegic.value.DoubleValue
-60.230

@<SCITEGIC>MOL_PROPERTY
W(PB)
SciTegic.value.DoubleValue
-62.557

@<SCITEGIC>MOL_PROPERTY
W(SA)
SciTegic.value.DoubleValue
2.328

@<SCITEGIC>MOL_PROPERTY
Valence
SciTegic.value.DoubleValue
7.101

@<SCITEGIC>MOL_PROPERTY
Coulomb
SciTegic.value.DoubleValue
-2.079

@<SCITEGIC>MOL_PROPERTY
VdW
SciTegic.value.DoubleValue
0.757

@<SCITEGIC>MOL_PROPERTY
VdW6
SciTegic.value.DoubleValue
-6.496

@<SCITEGIC>MOL_PROPERTY
VdW12
SciTegic.value.DoubleValue
7.253

@<SCITEGIC>MOL_PROPERTY
Bond
SciTegic.value.DoubleValue
0.100

@<SCITEGIC>MOL_PROPERTY
Angle
SciTegic.value.DoubleValue
2.262

@<SCITEGIC>MOL_PROPERTY
Pdih
SciTegic.value.DoubleValue
4.738

@<SCITEGIC>MOL_PROPERTY
Idih
SciTegic.value.DoubleValue
0.001

@<SCITEGIC>MOL_PROPERTY
Tether
SciTegic.value.DoubleValue
0.000

@<TRIPOS>MOLECULE
guest-s21_confgen4.mol2 : confsearch ligand conformer 943
          22          21           1
SMALL
USER_CHARGES
 
@<TRIPOS>ATOM
       1    C1      19.194457   15.948754   24.606914 C.2        1 MOL1         0.6145
       2    O1      20.060496   15.812862   25.448318 O.co2      1 MOL1        -0.6735
       3    O2      18.043415   15.591706   24.762076 O.co2      1 MOL1        -0.6735
       4    C2      19.567850   16.623618   23.291868 C.3        1 MOL1        -0.1985
       5    H1      18.948721   16.188926   22.497910 H          1 MOL1         0.0740
       6    H2      20.610728   16.372335   23.064012 H          1 MOL1         0.0740
       7    C3      19.384795   18.160857   23.331077 C.3        1 MOL1        -0.1882
       8    H3      18.338965   18.395341   23.573498 H          1 MOL1         0.0742
       9    H4      20.001216   18.579337   24.138822 H          1 MOL1         0.0742
      10    C4      19.769298   18.820018   21.988687 C.3        1 MOL1        -0.1880
      11    H5      19.150160   18.401341   21.183559 H          1 MOL1         0.0742
      12    H6      20.812780   18.573686   21.752820 H          1 MOL1         0.0742
      13    C5      19.588339   20.354763   22.034188 C.3        1 MOL1        -0.1880
      14    H7      18.558507   20.584311   22.340272 H          1 MOL1         0.0742
      15    H8      20.244506   20.782299   22.804638 H          1 MOL1         0.0742
      16    C6      19.863278   21.046696   20.678849 C.3        1 MOL1        -0.1856
      17    H9      19.599618   22.109768   20.766016 H          1 MOL1         0.0742
      18    H10     19.204212   20.625953   19.906892 H          1 MOL1         0.0742
      19    C7      21.334325   20.935446   20.222938 C.3        1 MOL1        -0.2871
      20    H11     21.496562   21.515555   19.305292 H          1 MOL1         0.0754
      21    H12     21.610616   19.895051   20.010939 H          1 MOL1         0.0754
      22    H13     22.014577   21.323022   20.992469 H          1 MOL1         0.0754
@<TRIPOS>BOND
    1     1     2    1
    2     1     3    2
    3     1     4    1
    4     4     5    1
    5     4     6    1
    6     4     7    1
    7     7     8    1
    8     7     9    1
    9     7    10    1
   10    10    11    1
   11    10    12    1
   12    10    13    1
   13    13    14    1
   14    13    15    1
   15    13    16    1
   16    16    17    1
   17    16    18    1
   18    16    19    1
   19    19    20    1
   20    19    21    1
   21    19    22    1
@<TRIPOS>SUBSTRUCTURE
       1 MOL1            1 RESIDUE      1      MOL     
@<SCITEGIC>MOL_PROPERTY
VConf Rank
SciTegic.value.IntegerValue
943

@<SCITEGIC>MOL_PROPERTY
Conf_Id
SciTegic.value.IntegerValue
37

@<SCITEGIC>MOL_PROPERTY
Delta U+W
SciTegic.value.DoubleValue
-0.345

@<SCITEGIC>MOL_PROPERTY
U+W
SciTegic.value.DoubleValue
-53.504

@<SCITEGIC>MOL_PROPERTY
Grad RMS
SciTegic.value.DoubleValue
0.000000

@<SCITEGIC>MOL_PROPERTY
U
SciTegic.value.DoubleValue
6.751

@<SCITEGIC>MOL_PROPERTY
W
SciTegic.value.DoubleValue
-60.255

@<SCITEGIC>MOL_PROPERTY
W(PB)
SciTegic.value.DoubleValue
-62.592

@<SCITEGIC>MOL_PROPERTY
W(SA)
SciTegic.value.DoubleValue
2.336

@<SCITEGIC>MOL_PROPERTY
Valence
SciTegic.value.DoubleValue
7.602

@<SCITEGIC>MOL_PROPERTY
Coulomb
SciTegic.value.DoubleValue
-1.744

@<SCITEGIC>MOL_PROPERTY
VdW
SciTegic.value.DoubleValue
0.894

@<SCITEGIC>MOL_PROPERTY
VdW6
SciTegic.value.DoubleValue
-7.110

@<SCITEGIC>MOL_PROPERTY
VdW12
SciTegic.value.DoubleValue
8.004

@<SCITEGIC>MOL_PROPERTY
Bond
SciTegic.value.DoubleValue
0.131

@<SCITEGIC>MOL_PROPERTY
Angle
SciTegic.value.DoubleValue
2.489

@<SCITEGIC>MOL_PROPERTY
Pdih
SciTegic.value.DoubleValue
4.982

@<SCITEGIC>MOL_PROPERTY
Idih
SciTegic.value.DoubleValue
0.001

@<SCITEGIC>MOL_PROPERTY
Tether
SciTegic.value.DoubleValue
0.000

@<TRIPOS>MOLECULE
guest-s21_confgen4.mol2 : confsearch ligand conformer 944
          22          21           1
SMALL
USER_CHARGES
 
@<TRIPOS>ATOM
       1    C1      18.505776   17.944268   18.696498 C.2        1 MOL1         0.6145
       2    O1      19.022183   18.577722   17.797326 O.co2      1 MOL1        -0.6735
       3    O2      17.401861   17.442526   18.618501 O.co2      1 MOL1        -0.6735
       4    C2      19.276604   17.788794   20.002585 C.3        1 MOL1        -0.1985
       5    H1      20.346655   17.755474   19.764808 H          1 MOL1         0.0740
       6    H2      19.011651   16.819290   20.441341 H          1 MOL1         0.0740
       7    C3      18.988384   18.928316   21.010838 C.3        1 MOL1        -0.1882
       8    H3      19.247161   19.892827   20.552251 H          1 MOL1         0.0742
       9    H4      17.911504   18.956727   21.227707 H          1 MOL1         0.0742
      10    C4      19.780183   18.747831   22.324166 C.3        1 MOL1        -0.1880
      11    H5      20.853336   18.713490   22.095407 H          1 MOL1         0.0742
      12    H6      19.517850   17.784004   22.781412 H          1 MOL1         0.0742
      13    C5      19.491981   19.889846   23.325667 C.3        1 MOL1        -0.1880
      14    H7      19.800646   20.850354   22.890825 H          1 MOL1         0.0742
      15    H8      18.407685   19.956550   23.489339 H          1 MOL1         0.0742
      16    C6      20.183982   19.696034   24.694931 C.3        1 MOL1        -0.1856
      17    H9      19.872594   18.739059   25.136007 H          1 MOL1         0.0742
      18    H10     19.835724   20.481249   25.380051 H          1 MOL1         0.0742
      19    C7      21.724897   19.754153   24.614855 C.3        1 MOL1        -0.2871
      20    H11     22.059130   20.690370   24.149108 H          1 MOL1         0.0754
      21    H12     22.127823   18.916296   24.032316 H          1 MOL1         0.0754
      22    H13     22.163616   19.701169   25.619663 H          1 MOL1         0.0754
@<TRIPOS>BOND
    1     1     2    1
    2     1     3    2
    3     1     4    1
    4     4     5    1
    5     4     6    1
    6     4     7    1
    7     7     8    1
    8     7     9    1
    9     7    10    1
   10    10    11    1
   11    10    12    1
   12    10    13    1
   13    13    14    1
   14    13    15    1
   15    13    16    1
   16    16    17    1
   17    16    18    1
   18    16    19    1
   19    19    20    1
   20    19    21    1
   21    19    22    1
@<TRIPOS>SUBSTRUCTURE
       1 MOL1            1 RESIDUE      1      MOL     
@<SCITEGIC>MOL_PROPERTY
VConf Rank
SciTegic.value.IntegerValue
944

@<SCITEGIC>MOL_PROPERTY
Conf_Id
SciTegic.value.IntegerValue
38

@<SCITEGIC>MOL_PROPERTY
Delta U+W
SciTegic.value.DoubleValue
-0.439

@<SCITEGIC>MOL_PROPERTY
U+W
SciTegic.value.DoubleValue
-53.598

@<SCITEGIC>MOL_PROPERTY
Grad RMS
SciTegic.value.DoubleValue
0.000000

@<SCITEGIC>MOL_PROPERTY
U
SciTegic.value.DoubleValue
6.751

@<SCITEGIC>MOL_PROPERTY
W
SciTegic.value.DoubleValue
-60.350

@<SCITEGIC>MOL_PROPERTY
W(PB)
SciTegic.value.DoubleValue
-62.659

@<SCITEGIC>MOL_PROPERTY
W(SA)
SciTegic.value.DoubleValue
2.309

@<SCITEGIC>MOL_PROPERTY
Valence
SciTegic.value.DoubleValue
7.602

@<SCITEGIC>MOL_PROPERTY
Coulomb
SciTegic.value.DoubleValue
-1.744

@<SCITEGIC>MOL_PROPERTY
VdW
SciTegic.value.DoubleValue
0.893

@<SCITEGIC>MOL_PROPERTY
VdW6
SciTegic.value.DoubleValue
-7.110

@<SCITEGIC>MOL_PROPERTY
VdW12
SciTegic.value.DoubleValue
8.004

@<SCITEGIC>MOL_PROPERTY
Bond
SciTegic.value.DoubleValue
0.131

@<SCITEGIC>MOL_PROPERTY
Angle
SciTegic.value.DoubleValue
2.489

@<SCITEGIC>MOL_PROPERTY
Pdih
SciTegic.value.DoubleValue
4.981

@<SCITEGIC>MOL_PROPERTY
Idih
SciTegic.value.DoubleValue
0.001

@<SCITEGIC>MOL_PROPERTY
Tether
SciTegic.value.DoubleValue
0.000

@<TRIPOS>MOLECULE
guest-s21_confgen4.mol2 : confsearch ligand conformer 945
          22          21           1
SMALL
USER_CHARGES
 
@<TRIPOS>ATOM
       1    C1      21.221455   15.962702   20.475586 C.2        1 MOL1         0.6145
       2    O1      20.959611   14.823996   20.809273 O.co2      1 MOL1        -0.6735
       3    O2      22.191699   16.261797   19.807978 O.co2      1 MOL1        -0.6735
       4    C2      20.293797   17.080185   20.939237 C.3        1 MOL1        -0.1985
       5    H1      19.277581   16.673384   21.004318 H          1 MOL1         0.0740
       6    H2      20.286814   17.850939   20.160552 H          1 MOL1         0.0740
       7    C3      20.717140   17.683201   22.304067 C.3        1 MOL1        -0.1882
       8    H3      20.807903   16.867715   23.034951 H          1 MOL1         0.0742
       9    H4      21.716474   18.131001   22.214061 H          1 MOL1         0.0742
      10    C4      19.721595   18.731918   22.855251 C.3        1 MOL1        -0.1880
      11    H5      20.030764   18.989488   23.876231 H          1 MOL1         0.0742
      12    H6      18.722037   18.283555   22.936021 H          1 MOL1         0.0742
      13    C5      19.648931   20.020554   21.999588 C.3        1 MOL1        -0.1880
      14    H7      20.648882   20.467823   21.917422 H          1 MOL1         0.0742
      15    H8      19.336925   19.764843   20.979126 H          1 MOL1         0.0742
      16    C6      18.657065   21.070183   22.553300 C.3        1 MOL1        -0.1856
      17    H9      17.657800   20.623172   22.647866 H          1 MOL1         0.0742
      18    H10     18.563944   21.885268   21.822404 H          1 MOL1         0.0742
      19    C7      19.089828   21.669083   23.909283 C.3        1 MOL1        -0.2871
      20    H11     19.079843   20.913001   24.704057 H          1 MOL1         0.0754
      21    H12     18.405673   22.473527   24.208816 H          1 MOL1         0.0754
      22    H13     20.101198   22.091498   23.847485 H          1 MOL1         0.0754
@<TRIPOS>BOND
    1     1     2    1
    2     1     3    2
    3     1     4    1
    4     4     5    1
    5     4     6    1
    6     4     7    1
    7     7     8    1
    8     7     9    1
    9     7    10    1
   10    10    11    1
   11    10    12    1
   12    10    13    1
   13    13    14    1
   14    13    15    1
   15    13    16    1
   16    16    17    1
   17    16    18    1
   18    16    19    1
   19    19    20    1
   20    19    21    1
   21    19    22    1
@<TRIPOS>SUBSTRUCTURE
       1 MOL1            1 RESIDUE      1      MOL     
@<SCITEGIC>MOL_PROPERTY
VConf Rank
SciTegic.value.IntegerValue
945

@<SCITEGIC>MOL_PROPERTY
Conf_Id
SciTegic.value.IntegerValue
60

@<SCITEGIC>MOL_PROPERTY
Delta U+W
SciTegic.value.DoubleValue
0.386

@<SCITEGIC>MOL_PROPERTY
U+W
SciTegic.value.DoubleValue
-52.773

@<SCITEGIC>MOL_PROPERTY
Grad RMS
SciTegic.value.DoubleValue
0.000000

@<SCITEGIC>MOL_PROPERTY
U
SciTegic.value.DoubleValue
7.689

@<SCITEGIC>MOL_PROPERTY
W
SciTegic.value.DoubleValue
-60.463

@<SCITEGIC>MOL_PROPERTY
W(PB)
SciTegic.value.DoubleValue
-62.772

@<SCITEGIC>MOL_PROPERTY
W(SA)
SciTegic.value.DoubleValue
2.309

@<SCITEGIC>MOL_PROPERTY
Valence
SciTegic.value.DoubleValue
8.197

@<SCITEGIC>MOL_PROPERTY
Coulomb
SciTegic.value.DoubleValue
-1.561

@<SCITEGIC>MOL_PROPERTY
VdW
SciTegic.value.DoubleValue
1.053

@<SCITEGIC>MOL_PROPERTY
VdW6
SciTegic.value.DoubleValue
-7.737

@<SCITEGIC>MOL_PROPERTY
VdW12
SciTegic.value.DoubleValue
8.790

@<SCITEGIC>MOL_PROPERTY
Bond
SciTegic.value.DoubleValue
0.181

@<SCITEGIC>MOL_PROPERTY
Angle
SciTegic.value.DoubleValue
2.780

@<SCITEGIC>MOL_PROPERTY
Pdih
SciTegic.value.DoubleValue
5.235

@<SCITEGIC>MOL_PROPERTY
Idih
SciTegic.value.DoubleValue
0.001

@<SCITEGIC>MOL_PROPERTY
Tether
SciTegic.value.DoubleValue
0.000

@<TRIPOS>MOLECULE
guest-s21_confgen4.mol2 : confsearch ligand conformer 946
          22          21           1
SMALL
USER_CHARGES
 
@<TRIPOS>ATOM
       1    C1      19.705340   15.271315   23.100949 C.2        1 MOL1         0.6145
       2    O1      20.830218   14.826485   23.216320 O.co2      1 MOL1        -0.6735
       3    O2      18.721766   14.577947   22.932478 O.co2      1 MOL1        -0.6735
       4    C2      19.520547   16.783921   23.147474 C.3        1 MOL1        -0.1985
       5    H1      20.271583   17.189563   23.834397 H          1 MOL1         0.0740
       6    H2      18.535385   16.992858   23.581313 H          1 MOL1         0.0740
       7    C3      19.641048   17.445851   21.749998 C.3        1 MOL1        -0.1882
       8    H3      20.648030   17.271741   21.346305 H          1 MOL1         0.0742
       9    H4      18.942024   16.947375   21.064188 H          1 MOL1         0.0742
      10    C4      19.333410   18.962450   21.752561 C.3        1 MOL1        -0.1880
      11    H5      18.329465   19.133564   22.164243 H          1 MOL1         0.0742
      12    H6      19.305033   19.304668   20.710251 H          1 MOL1         0.0742
      13    C5      20.371109   19.799428   22.540385 C.3        1 MOL1        -0.1880
      14    H7      20.398264   19.460381   23.583643 H          1 MOL1         0.0742
      15    H8      21.375258   19.626755   22.129810 H          1 MOL1         0.0742
      16    C6      20.065696   21.315618   22.538838 C.3        1 MOL1        -0.1856
      17    H9      20.762646   21.814969   23.225973 H          1 MOL1         0.0742
      18    H10     19.057340   21.491692   22.938226 H          1 MOL1         0.0742
      19    C7      20.194351   21.966805   21.144543 C.3        1 MOL1        -0.2871
      20    H11     21.184105   21.773984   20.710570 H          1 MOL1         0.0754
      21    H12     20.062985   23.054270   21.215814 H          1 MOL1         0.0754
      22    H13     19.433849   21.586240   20.451556 H          1 MOL1         0.0754
@<TRIPOS>BOND
    1     1     2    1
    2     1     3    2
    3     1     4    1
    4     4     5    1
    5     4     6    1
    6     4     7    1
    7     7     8    1
    8     7     9    1
    9     7    10    1
   10    10    11    1
   11    10    12    1
   12    10    13    1
   13    13    14    1
   14    13    15    1
   15    13    16    1
   16    16    17    1
   17    16    18    1
   18    16    19    1
   19    19    20    1
   20    19    21    1
   21    19    22    1
@<TRIPOS>SUBSTRUCTURE
       1 MOL1            1 RESIDUE      1      MOL     
@<SCITEGIC>MOL_PROPERTY
VConf Rank
SciTegic.value.IntegerValue
946

@<SCITEGIC>MOL_PROPERTY
Conf_Id
SciTegic.value.IntegerValue
28

@<SCITEGIC>MOL_PROPERTY
Delta U+W
SciTegic.value.DoubleValue
0.351

@<SCITEGIC>MOL_PROPERTY
U+W
SciTegic.value.DoubleValue
-52.808

@<SCITEGIC>MOL_PROPERTY
Grad RMS
SciTegic.value.DoubleValue
0.000000

@<SCITEGIC>MOL_PROPERTY
U
SciTegic.value.DoubleValue
7.689

@<SCITEGIC>MOL_PROPERTY
W
SciTegic.value.DoubleValue
-60.498

@<SCITEGIC>MOL_PROPERTY
W(PB)
SciTegic.value.DoubleValue
-62.768

@<SCITEGIC>MOL_PROPERTY
W(SA)
SciTegic.value.DoubleValue
2.270

@<SCITEGIC>MOL_PROPERTY
Valence
SciTegic.value.DoubleValue
8.197

@<SCITEGIC>MOL_PROPERTY
Coulomb
SciTegic.value.DoubleValue
-1.561

@<SCITEGIC>MOL_PROPERTY
VdW
SciTegic.value.DoubleValue
1.053

@<SCITEGIC>MOL_PROPERTY
VdW6
SciTegic.value.DoubleValue
-7.737

@<SCITEGIC>MOL_PROPERTY
VdW12
SciTegic.value.DoubleValue
8.791

@<SCITEGIC>MOL_PROPERTY
Bond
SciTegic.value.DoubleValue
0.181

@<SCITEGIC>MOL_PROPERTY
Angle
SciTegic.value.DoubleValue
2.780

@<SCITEGIC>MOL_PROPERTY
Pdih
SciTegic.value.DoubleValue
5.235

@<SCITEGIC>MOL_PROPERTY
Idih
SciTegic.value.DoubleValue
0.001

@<SCITEGIC>MOL_PROPERTY
Tether
SciTegic.value.DoubleValue
0.000

@<TRIPOS>MOLECULE
guest-s21_confgen4.mol2 : confsearch ligand conformer 947
          22          21           1
SMALL
USER_CHARGES
 
@<TRIPOS>ATOM
       1    C1      22.457756   21.550068   21.623560 C.2        1 MOL1         0.6145
       2    O1      23.459056   21.529698   22.311641 O.co2      1 MOL1        -0.6735
       3    O2      22.466938   21.767525   20.428117 O.co2      1 MOL1        -0.6735
       4    C2      21.117840   21.267467   22.293697 C.3        1 MOL1        -0.1985
       5    H1      20.346009   21.842770   21.768384 H          1 MOL1         0.0740
       6    H2      21.163779   21.648706   23.320908 H          1 MOL1         0.0740
       7    C3      20.752442   19.762556   22.297053 C.3        1 MOL1        -0.1882
       8    H3      20.732589   19.400276   21.260796 H          1 MOL1         0.0742
       9    H4      21.538857   19.199602   22.818530 H          1 MOL1         0.0742
      10    C4      19.388045   19.505455   22.977774 C.3        1 MOL1        -0.1880
      11    H5      18.593944   20.025922   22.425048 H          1 MOL1         0.0742
      12    H6      19.403763   19.943252   23.985270 H          1 MOL1         0.0742
      13    C5      19.034250   18.004443   23.101689 C.3        1 MOL1        -0.1880
      14    H7      19.826137   17.484346   23.657878 H          1 MOL1         0.0742
      15    H8      18.119750   17.911033   23.703263 H          1 MOL1         0.0742
      16    C6      18.811402   17.309032   21.739693 C.3        1 MOL1        -0.1856
      17    H9      19.738585   17.321937   21.151879 H          1 MOL1         0.0742
      18    H10     18.056938   17.859879   21.161284 H          1 MOL1         0.0742
      19    C7      18.352412   15.847956   21.919414 C.3        1 MOL1        -0.2871
      20    H11     17.404695   15.798448   22.471444 H          1 MOL1         0.0754
      21    H12     19.102006   15.266324   22.471862 H          1 MOL1         0.0754
      22    H13     18.201705   15.367197   20.944105 H          1 MOL1         0.0754
@<TRIPOS>BOND
    1     1     2    1
    2     1     3    2
    3     1     4    1
    4     4     5    1
    5     4     6    1
    6     4     7    1
    7     7     8    1
    8     7     9    1
    9     7    10    1
   10    10    11    1
   11    10    12    1
   12    10    13    1
   13    13    14    1
   14    13    15    1
   15    13    16    1
   16    16    17    1
   17    16    18    1
   18    16    19    1
   19    19    20    1
   20    19    21    1
   21    19    22    1
@<TRIPOS>SUBSTRUCTURE
       1 MOL1            1 RESIDUE      1      MOL     
@<SCITEGIC>MOL_PROPERTY
VConf Rank
SciTegic.value.IntegerValue
947

@<SCITEGIC>MOL_PROPERTY
Conf_Id
SciTegic.value.IntegerValue
50

@<SCITEGIC>MOL_PROPERTY
Delta U+W
SciTegic.value.DoubleValue
-0.486

@<SCITEGIC>MOL_PROPERTY
U+W
SciTegic.value.DoubleValue
-53.646

@<SCITEGIC>MOL_PROPERTY
Grad RMS
SciTegic.value.DoubleValue
0.000000

@<SCITEGIC>MOL_PROPERTY
U
SciTegic.value.DoubleValue
7.026

@<SCITEGIC>MOL_PROPERTY
W
SciTegic.value.DoubleValue
-60.672

@<SCITEGIC>MOL_PROPERTY
W(PB)
SciTegic.value.DoubleValue
-62.964

@<SCITEGIC>MOL_PROPERTY
W(SA)
SciTegic.value.DoubleValue
2.292

@<SCITEGIC>MOL_PROPERTY
Valence
SciTegic.value.DoubleValue
7.637

@<SCITEGIC>MOL_PROPERTY
Coulomb
SciTegic.value.DoubleValue
-1.488

@<SCITEGIC>MOL_PROPERTY
VdW
SciTegic.value.DoubleValue
0.877

@<SCITEGIC>MOL_PROPERTY
VdW6
SciTegic.value.DoubleValue
-7.165

@<SCITEGIC>MOL_PROPERTY
VdW12
SciTegic.value.DoubleValue
8.043

@<SCITEGIC>MOL_PROPERTY
Bond
SciTegic.value.DoubleValue
0.134

@<SCITEGIC>MOL_PROPERTY
Angle
SciTegic.value.DoubleValue
2.513

@<SCITEGIC>MOL_PROPERTY
Pdih
SciTegic.value.DoubleValue
4.990

@<SCITEGIC>MOL_PROPERTY
Idih
SciTegic.value.DoubleValue
0.001

@<SCITEGIC>MOL_PROPERTY
Tether
SciTegic.value.DoubleValue
0.000

@<TRIPOS>MOLECULE
guest-s21_confgen4.mol2 : confsearch ligand conformer 948
          22          21           1
SMALL
USER_CHARGES
 
@<TRIPOS>ATOM
       1    C1      18.509695   17.246447   25.310097 C.2        1 MOL1         0.6145
       2    O1      19.295574   17.122632   26.228539 O.co2      1 MOL1        -0.6735
       3    O2      17.759048   16.364253   24.943058 O.co2      1 MOL1        -0.6735
       4    C2      18.478149   18.575491   24.563788 C.3        1 MOL1        -0.1985
       5    H1      18.717054   19.372714   25.277913 H          1 MOL1         0.0740
       6    H2      17.452048   18.747364   24.217054 H          1 MOL1         0.0740
       7    C3      19.460118   18.616881   23.366992 C.3        1 MOL1        -0.1882
       8    H3      20.481245   18.434217   23.729260 H          1 MOL1         0.0742
       9    H4      19.213543   17.798656   22.677662 H          1 MOL1         0.0742
      10    C4      19.404137   19.973040   22.626205 C.3        1 MOL1        -0.1880
      11    H5      19.577764   20.781940   23.349045 H          1 MOL1         0.0742
      12    H6      18.396358   20.131547   22.218473 H          1 MOL1         0.0742
      13    C5      20.447608   20.098679   21.490888 C.3        1 MOL1        -0.1880
      14    H7      20.422301   21.127862   21.107390 H          1 MOL1         0.0742
      15    H8      21.455862   19.944169   21.898910 H          1 MOL1         0.0742
      16    C6      20.204408   19.121051   20.318972 C.3        1 MOL1        -0.1856
      17    H9      19.178010   19.238729   19.944987 H          1 MOL1         0.0742
      18    H10     20.302845   18.083691   20.664738 H          1 MOL1         0.0742
      19    C7      21.199998   19.361594   19.166298 C.3        1 MOL1        -0.2871
      20    H11     22.234742   19.223392   19.506286 H          1 MOL1         0.0754
      21    H12     21.102722   20.380310   18.768664 H          1 MOL1         0.0754
      22    H13     21.016637   18.658097   18.343778 H          1 MOL1         0.0754
@<TRIPOS>BOND
    1     1     2    1
    2     1     3    2
    3     1     4    1
    4     4     5    1
    5     4     6    1
    6     4     7    1
    7     7     8    1
    8     7     9    1
    9     7    10    1
   10    10    11    1
   11    10    12    1
   12    10    13    1
   13    13    14    1
   14    13    15    1
   15    13    16    1
   16    16    17    1
   17    16    18    1
   18    16    19    1
   19    19    20    1
   20    19    21    1
   21    19    22    1
@<TRIPOS>SUBSTRUCTURE
       1 MOL1            1 RESIDUE      1      MOL     
@<SCITEGIC>MOL_PROPERTY
VConf Rank
SciTegic.value.IntegerValue
948

@<SCITEGIC>MOL_PROPERTY
Conf_Id
SciTegic.value.IntegerValue
51

@<SCITEGIC>MOL_PROPERTY
Delta U+W
SciTegic.value.DoubleValue
-0.517

@<SCITEGIC>MOL_PROPERTY
U+W
SciTegic.value.DoubleValue
-53.677

@<SCITEGIC>MOL_PROPERTY
Grad RMS
SciTegic.value.DoubleValue
0.000000

@<SCITEGIC>MOL_PROPERTY
U
SciTegic.value.DoubleValue
7.026

@<SCITEGIC>MOL_PROPERTY
W
SciTegic.value.DoubleValue
-60.703

@<SCITEGIC>MOL_PROPERTY
W(PB)
SciTegic.value.DoubleValue
-63.007

@<SCITEGIC>MOL_PROPERTY
W(SA)
SciTegic.value.DoubleValue
2.304

@<SCITEGIC>MOL_PROPERTY
Valence
SciTegic.value.DoubleValue
7.638

@<SCITEGIC>MOL_PROPERTY
Coulomb
SciTegic.value.DoubleValue
-1.488

@<SCITEGIC>MOL_PROPERTY
VdW
SciTegic.value.DoubleValue
0.877

@<SCITEGIC>MOL_PROPERTY
VdW6
SciTegic.value.DoubleValue
-7.165

@<SCITEGIC>MOL_PROPERTY
VdW12
SciTegic.value.DoubleValue
8.042

@<SCITEGIC>MOL_PROPERTY
Bond
SciTegic.value.DoubleValue
0.134

@<SCITEGIC>MOL_PROPERTY
Angle
SciTegic.value.DoubleValue
2.513

@<SCITEGIC>MOL_PROPERTY
Pdih
SciTegic.value.DoubleValue
4.990

@<SCITEGIC>MOL_PROPERTY
Idih
SciTegic.value.DoubleValue
0.001

@<SCITEGIC>MOL_PROPERTY
Tether
SciTegic.value.DoubleValue
0.000

@<TRIPOS>MOLECULE
guest-s21_confgen4.mol2 : confsearch ligand conformer 949
          22          21           1
SMALL
USER_CHARGES
 
@<TRIPOS>ATOM
       1    C1      19.789279   19.114515   25.811086 C.2        1 MOL1         0.6145
       2    O1      20.863806   18.966852   26.359255 O.co2      1 MOL1        -0.6735
       3    O2      19.132453   20.134432   25.882774 O.co2      1 MOL1        -0.6735
       4    C2      19.227145   17.947124   25.004650 C.3        1 MOL1        -0.1985
       5    H1      18.148656   18.098377   24.874692 H          1 MOL1         0.0740
       6    H2      19.349888   17.041227   25.609898 H          1 MOL1         0.0740
       7    C3      19.909565   17.745794   23.626694 C.3        1 MOL1        -0.1882
       8    H3      20.992129   17.623860   23.771057 H          1 MOL1         0.0742
       9    H4      19.542895   16.811440   23.180513 H          1 MOL1         0.0742
      10    C4      19.639779   18.915242   22.653457 C.3        1 MOL1        -0.1880
      11    H5      20.019443   19.851477   23.085576 H          1 MOL1         0.0742
      12    H6      18.556250   19.041383   22.522813 H          1 MOL1         0.0742
      13    C5      20.301694   18.679345   21.278803 C.3        1 MOL1        -0.1880
      14    H7      21.385180   18.553337   21.410282 H          1 MOL1         0.0742
      15    H8      19.921485   17.745087   20.843303 H          1 MOL1         0.0742
      16    C6      20.033358   19.847177   20.306582 C.3        1 MOL1        -0.1856
      17    H9      20.414019   20.783304   20.738166 H          1 MOL1         0.0742
      18    H10     18.950415   19.975191   20.171274 H          1 MOL1         0.0742
      19    C7      20.696393   19.608390   18.935188 C.3        1 MOL1        -0.2871
      20    H11     21.784928   19.508125   19.037356 H          1 MOL1         0.0754
      21    H12     20.495550   20.447888   18.256963 H          1 MOL1         0.0754
      22    H13     20.310323   18.693858   18.466171 H          1 MOL1         0.0754
@<TRIPOS>BOND
    1     1     2    1
    2     1     3    2
    3     1     4    1
    4     4     5    1
    5     4     6    1
    6     4     7    1
    7     7     8    1
    8     7     9    1
    9     7    10    1
   10    10    11    1
   11    10    12    1
   12    10    13    1
   13    13    14    1
   14    13    15    1
   15    13    16    1
   16    16    17    1
   17    16    18    1
   18    16    19    1
   19    19    20    1
   20    19    21    1
   21    19    22    1
@<TRIPOS>SUBSTRUCTURE
       1 MOL1            1 RESIDUE      1      MOL     
@<SCITEGIC>MOL_PROPERTY
VConf Rank
SciTegic.value.IntegerValue
949

@<SCITEGIC>MOL_PROPERTY
Conf_Id
SciTegic.value.IntegerValue
43

@<SCITEGIC>MOL_PROPERTY
Delta U+W
SciTegic.value.DoubleValue
-0.129

@<SCITEGIC>MOL_PROPERTY
U+W
SciTegic.value.DoubleValue
-53.289

@<SCITEGIC>MOL_PROPERTY
Grad RMS
SciTegic.value.DoubleValue
0.000000

@<SCITEGIC>MOL_PROPERTY
U
SciTegic.value.DoubleValue
7.937

@<SCITEGIC>MOL_PROPERTY
W
SciTegic.value.DoubleValue
-61.225

@<SCITEGIC>MOL_PROPERTY
W(PB)
SciTegic.value.DoubleValue
-63.523

@<SCITEGIC>MOL_PROPERTY
W(SA)
SciTegic.value.DoubleValue
2.297

@<SCITEGIC>MOL_PROPERTY
Valence
SciTegic.value.DoubleValue
7.358

@<SCITEGIC>MOL_PROPERTY
Coulomb
SciTegic.value.DoubleValue
-0.022

@<SCITEGIC>MOL_PROPERTY
VdW
SciTegic.value.DoubleValue
0.601

@<SCITEGIC>MOL_PROPERTY
VdW6
SciTegic.value.DoubleValue
-7.363

@<SCITEGIC>MOL_PROPERTY
VdW12
SciTegic.value.DoubleValue
7.964

@<SCITEGIC>MOL_PROPERTY
Bond
SciTegic.value.DoubleValue
0.121

@<SCITEGIC>MOL_PROPERTY
Angle
SciTegic.value.DoubleValue
2.425

@<SCITEGIC>MOL_PROPERTY
Pdih
SciTegic.value.DoubleValue
4.811

@<SCITEGIC>MOL_PROPERTY
Idih
SciTegic.value.DoubleValue
0.000

@<SCITEGIC>MOL_PROPERTY
Tether
SciTegic.value.DoubleValue
0.000

@<TRIPOS>MOLECULE
guest-s21_confgen4.mol2 : confsearch ligand conformer 950
          22          21           1
SMALL
USER_CHARGES
 
@<TRIPOS>ATOM
       1    C1      18.930958   22.359359   21.535057 C.2        1 MOL1         0.6145
       2    O1      19.897130   23.096090   21.560350 O.co2      1 MOL1        -0.6735
       3    O2      17.960358   22.498519   22.252944 O.co2      1 MOL1        -0.6735
       4    C2      18.930854   21.207950   20.533364 C.3        1 MOL1        -0.1985
       5    H1      19.267152   21.610765   19.570720 H          1 MOL1         0.0740
       6    H2      17.898041   20.867239   20.391533 H          1 MOL1         0.0740
       7    C3      19.836447   20.016929   20.941247 C.3        1 MOL1        -0.1882
       8    H3      19.884073   19.303519   20.107389 H          1 MOL1         0.0742
       9    H4      20.860822   20.378682   21.106908 H          1 MOL1         0.0742
      10    C4      19.327471   19.289225   22.205754 C.3        1 MOL1        -0.1880
      11    H5      18.298731   18.941155   22.039754 H          1 MOL1         0.0742
      12    H6      19.293307   19.992751   23.049135 H          1 MOL1         0.0742
      13    C5      20.225488   18.088979   22.575125 C.3        1 MOL1        -0.1880
      14    H7      20.258976   17.382562   21.734344 H          1 MOL1         0.0742
      15    H8      21.254016   18.437865   22.741008 H          1 MOL1         0.0742
      16    C6      19.718256   17.362216   23.838288 C.3        1 MOL1        -0.1856
      17    H9      18.690103   17.010280   23.675486 H          1 MOL1         0.0742
      18    H10     19.685133   18.065435   24.682023 H          1 MOL1         0.0742
      19    C7      20.617810   16.164674   24.204420 C.3        1 MOL1        -0.2871
      20    H11     20.644001   15.429468   23.389446 H          1 MOL1         0.0754
      21    H12     20.242764   15.659971   25.104254 H          1 MOL1         0.0754
      22    H13     21.646495   16.492604   24.403594 H          1 MOL1         0.0754
@<TRIPOS>BOND
    1     1     2    1
    2     1     3    2
    3     1     4    1
    4     4     5    1
    5     4     6    1
    6     4     7    1
    7     7     8    1
    8     7     9    1
    9     7    10    1
   10    10    11    1
   11    10    12    1
   12    10    13    1
   13    13    14    1
   14    13    15    1
   15    13    16    1
   16    16    17    1
   17    16    18    1
   18    16    19    1
   19    19    20    1
   20    19    21    1
   21    19    22    1
@<TRIPOS>SUBSTRUCTURE
       1 MOL1            1 RESIDUE      1      MOL     
@<SCITEGIC>MOL_PROPERTY
VConf Rank
SciTegic.value.IntegerValue
950

@<SCITEGIC>MOL_PROPERTY
Conf_Id
SciTegic.value.IntegerValue
44

@<SCITEGIC>MOL_PROPERTY
Delta U+W
SciTegic.value.DoubleValue
-0.155

@<SCITEGIC>MOL_PROPERTY
U+W
SciTegic.value.DoubleValue
-53.314

@<SCITEGIC>MOL_PROPERTY
Grad RMS
SciTegic.value.DoubleValue
0.000000

@<SCITEGIC>MOL_PROPERTY
U
SciTegic.value.DoubleValue
7.937

@<SCITEGIC>MOL_PROPERTY
W
SciTegic.value.DoubleValue
-61.252

@<SCITEGIC>MOL_PROPERTY
W(PB)
SciTegic.value.DoubleValue
-63.556

@<SCITEGIC>MOL_PROPERTY
W(SA)
SciTegic.value.DoubleValue
2.304

@<SCITEGIC>MOL_PROPERTY
Valence
SciTegic.value.DoubleValue
7.358

@<SCITEGIC>MOL_PROPERTY
Coulomb
SciTegic.value.DoubleValue
-0.021

@<SCITEGIC>MOL_PROPERTY
VdW
SciTegic.value.DoubleValue
0.600

@<SCITEGIC>MOL_PROPERTY
VdW6
SciTegic.value.DoubleValue
-7.363

@<SCITEGIC>MOL_PROPERTY
VdW12
SciTegic.value.DoubleValue
7.964

@<SCITEGIC>MOL_PROPERTY
Bond
SciTegic.value.DoubleValue
0.121

@<SCITEGIC>MOL_PROPERTY
Angle
SciTegic.value.DoubleValue
2.425

@<SCITEGIC>MOL_PROPERTY
Pdih
SciTegic.value.DoubleValue
4.811

@<SCITEGIC>MOL_PROPERTY
Idih
SciTegic.value.DoubleValue
0.001

@<SCITEGIC>MOL_PROPERTY
Tether
SciTegic.value.DoubleValue
0.000

@<TRIPOS>MOLECULE
guest-s21_confgen4.mol2 : confsearch ligand conformer 951
          22          21           1
SMALL
USER_CHARGES
 
@<TRIPOS>ATOM
       1    C1      19.945757   20.695130   25.417848 C.2        1 MOL1         0.6145
       2    O1      19.173463   21.632002   25.470347 O.co2      1 MOL1        -0.6735
       3    O2      21.122290   20.776620   25.711098 O.co2      1 MOL1        -0.6735
       4    C2      19.402048   19.338675   24.977707 C.3        1 MOL1        -0.1985
       5    H1      18.463791   19.171094   25.519575 H          1 MOL1         0.0740
       6    H2      20.100484   18.558401   25.303666 H          1 MOL1         0.0740
       7    C3      19.145890   19.224497   23.452266 C.3        1 MOL1        -0.1882
       8    H3      18.616643   18.282948   23.258493 H          1 MOL1         0.0742
       9    H4      18.477160   20.036202   23.133930 H          1 MOL1         0.0742
      10    C4      20.453633   19.267320   22.625716 C.3        1 MOL1        -0.1880
      11    H5      21.103086   18.430120   22.915732 H          1 MOL1         0.0742
      12    H6      21.005039   20.185372   22.870918 H          1 MOL1         0.0742
      13    C5      20.218236   19.235650   21.096857 C.3        1 MOL1        -0.1880
      14    H7      19.568552   20.072906   20.807322 H          1 MOL1         0.0742
      15    H8      21.180708   19.401432   20.593799 H          1 MOL1         0.0742
      16    C6      19.612062   17.906557   20.592386 C.3        1 MOL1        -0.1856
      17    H9      18.612214   17.759356   21.021164 H          1 MOL1         0.0742
      18    H10     20.232888   17.064754   20.928746 H          1 MOL1         0.0742
      19    C7      19.505816   17.881683   19.054260 C.3        1 MOL1        -0.2871
      20    H11     18.867438   18.698066   18.691802 H          1 MOL1         0.0754
      21    H12     19.070863   16.933692   18.711926 H          1 MOL1         0.0754
      22    H13     20.494996   17.987677   18.589886 H          1 MOL1         0.0754
@<TRIPOS>BOND
    1     1     2    1
    2     1     3    2
    3     1     4    1
    4     4     5    1
    5     4     6    1
    6     4     7    1
    7     7     8    1
    8     7     9    1
    9     7    10    1
   10    10    11    1
   11    10    12    1
   12    10    13    1
   13    13    14    1
   14    13    15    1
   15    13    16    1
   16    16    17    1
   17    16    18    1
   18    16    19    1
   19    19    20    1
   20    19    21    1
   21    19    22    1
@<TRIPOS>SUBSTRUCTURE
       1 MOL1            1 RESIDUE      1      MOL     
@<SCITEGIC>MOL_PROPERTY
VConf Rank
SciTegic.value.IntegerValue
951

@<SCITEGIC>MOL_PROPERTY
Conf_Id
SciTegic.value.IntegerValue
53

@<SCITEGIC>MOL_PROPERTY
Delta U+W
SciTegic.value.DoubleValue
0.723

@<SCITEGIC>MOL_PROPERTY
U+W
SciTegic.value.DoubleValue
-52.436

@<SCITEGIC>MOL_PROPERTY
Grad RMS
SciTegic.value.DoubleValue
0.000000

@<SCITEGIC>MOL_PROPERTY
U
SciTegic.value.DoubleValue
8.587

@<SCITEGIC>MOL_PROPERTY
W
SciTegic.value.DoubleValue
-61.022

@<SCITEGIC>MOL_PROPERTY
W(PB)
SciTegic.value.DoubleValue
-63.285

@<SCITEGIC>MOL_PROPERTY
W(SA)
SciTegic.value.DoubleValue
2.263

@<SCITEGIC>MOL_PROPERTY
Valence
SciTegic.value.DoubleValue
7.933

@<SCITEGIC>MOL_PROPERTY
Coulomb
SciTegic.value.DoubleValue
-0.124

@<SCITEGIC>MOL_PROPERTY
VdW
SciTegic.value.DoubleValue
0.778

@<SCITEGIC>MOL_PROPERTY
VdW6
SciTegic.value.DoubleValue
-7.981

@<SCITEGIC>MOL_PROPERTY
VdW12
SciTegic.value.DoubleValue
8.759

@<SCITEGIC>MOL_PROPERTY
Bond
SciTegic.value.DoubleValue
0.160

@<SCITEGIC>MOL_PROPERTY
Angle
SciTegic.value.DoubleValue
2.698

@<SCITEGIC>MOL_PROPERTY
Pdih
SciTegic.value.DoubleValue
5.074

@<SCITEGIC>MOL_PROPERTY
Idih
SciTegic.value.DoubleValue
0.001

@<SCITEGIC>MOL_PROPERTY
Tether
SciTegic.value.DoubleValue
0.000

@<TRIPOS>MOLECULE
guest-s21_confgen4.mol2 : confsearch ligand conformer 952
          22          21           1
SMALL
USER_CHARGES
 
@<TRIPOS>ATOM
       1    C1      18.478046   18.004181   25.274957 C.2        1 MOL1         0.6145
       2    O1      17.268843   18.117492   25.235486 O.co2      1 MOL1        -0.6735
       3    O2      19.078663   17.529649   26.218706 O.co2      1 MOL1        -0.6735
       4    C2      19.284558   18.461970   24.065013 C.3        1 MOL1        -0.1985
       5    H1      20.262770   18.808875   24.418622 H          1 MOL1         0.0740
       6    H2      18.766350   19.322974   23.628136 H          1 MOL1         0.0740
       7    C3      19.462354   17.345788   23.004984 C.3        1 MOL1        -0.1882
       8    H3      19.856893   16.448483   23.501576 H          1 MOL1         0.0742
       9    H4      18.477638   17.067532   22.604780 H          1 MOL1         0.0742
      10    C4      20.410853   17.718444   21.837875 C.3        1 MOL1        -0.1880
      11    H5      20.493037   16.838651   21.185068 H          1 MOL1         0.0742
      12    H6      21.424567   17.902339   22.219348 H          1 MOL1         0.0742
      13    C5      19.935220   18.915621   20.976337 C.3        1 MOL1        -0.1880
      14    H7      20.203246   18.719001   19.929200 H          1 MOL1         0.0742
      15    H8      18.839290   18.987803   21.002635 H          1 MOL1         0.0742
      16    C6      20.573931   20.261320   21.390943 C.3        1 MOL1        -0.1856
      17    H9      21.666998   20.191326   21.304340 H          1 MOL1         0.0742
      18    H10     20.356306   20.484722   22.442179 H          1 MOL1         0.0742
      19    C7      20.067463   21.422124   20.511538 C.3        1 MOL1        -0.2871
      20    H11     20.306711   21.247843   19.454316 H          1 MOL1         0.0754
      21    H12     20.534819   22.368464   20.813288 H          1 MOL1         0.0754
      22    H13     18.979433   21.537266   20.602599 H          1 MOL1         0.0754
@<TRIPOS>BOND
    1     1     2    1
    2     1     3    2
    3     1     4    1
    4     4     5    1
    5     4     6    1
    6     4     7    1
    7     7     8    1
    8     7     9    1
    9     7    10    1
   10    10    11    1
   11    10    12    1
   12    10    13    1
   13    13    14    1
   14    13    15    1
   15    13    16    1
   16    16    17    1
   17    16    18    1
   18    16    19    1
   19    19    20    1
   20    19    21    1
   21    19    22    1
@<TRIPOS>SUBSTRUCTURE
       1 MOL1            1 RESIDUE      1      MOL     
@<SCITEGIC>MOL_PROPERTY
VConf Rank
SciTegic.value.IntegerValue
952

@<SCITEGIC>MOL_PROPERTY
Conf_Id
SciTegic.value.IntegerValue
5

@<SCITEGIC>MOL_PROPERTY
Delta U+W
SciTegic.value.DoubleValue
2.167

@<SCITEGIC>MOL_PROPERTY
U+W
SciTegic.value.DoubleValue
-50.993

@<SCITEGIC>MOL_PROPERTY
Grad RMS
SciTegic.value.DoubleValue
0.000000

@<SCITEGIC>MOL_PROPERTY
U
SciTegic.value.DoubleValue
10.045

@<SCITEGIC>MOL_PROPERTY
W
SciTegic.value.DoubleValue
-61.037

@<SCITEGIC>MOL_PROPERTY
W(PB)
SciTegic.value.DoubleValue
-63.303

@<SCITEGIC>MOL_PROPERTY
W(SA)
SciTegic.value.DoubleValue
2.266

@<SCITEGIC>MOL_PROPERTY
Valence
SciTegic.value.DoubleValue
10.100

@<SCITEGIC>MOL_PROPERTY
Coulomb
SciTegic.value.DoubleValue
-0.883

@<SCITEGIC>MOL_PROPERTY
VdW
SciTegic.value.DoubleValue
0.828

@<SCITEGIC>MOL_PROPERTY
VdW6
SciTegic.value.DoubleValue
-8.177

@<SCITEGIC>MOL_PROPERTY
VdW12
SciTegic.value.DoubleValue
9.005

@<SCITEGIC>MOL_PROPERTY
Bond
SciTegic.value.DoubleValue
0.182

@<SCITEGIC>MOL_PROPERTY
Angle
SciTegic.value.DoubleValue
2.988

@<SCITEGIC>MOL_PROPERTY
Pdih
SciTegic.value.DoubleValue
6.930

@<SCITEGIC>MOL_PROPERTY
Idih
SciTegic.value.DoubleValue
0.001

@<SCITEGIC>MOL_PROPERTY
Tether
SciTegic.value.DoubleValue
0.000

@<TRIPOS>MOLECULE
guest-s21_confgen4.mol2 : confsearch ligand conformer 953
          22          21           1
SMALL
USER_CHARGES
 
@<TRIPOS>ATOM
       1    C1      20.103877   19.080378   25.681609 C.2        1 MOL1         0.6145
       2    O1      20.944360   18.289880   26.062750 O.co2      1 MOL1        -0.6735
       3    O2      19.422079   19.750867   26.431396 O.co2      1 MOL1        -0.6735
       4    C2      19.876110   19.222322   24.180950 C.3        1 MOL1        -0.1985
       5    H1      20.840736   19.070478   23.683788 H          1 MOL1         0.0740
       6    H2      19.558746   20.252482   23.980119 H          1 MOL1         0.0740
       7    C3      18.825987   18.221652   23.635933 C.3        1 MOL1        -0.1882
       8    H3      19.197764   17.196965   23.773965 H          1 MOL1         0.0742
       9    H4      17.914321   18.302228   24.244041 H          1 MOL1         0.0742
      10    C4      18.446100   18.440502   22.149844 C.3        1 MOL1        -0.1880
      11    H5      17.981507   19.427601   22.020444 H          1 MOL1         0.0742
      12    H6      17.666733   17.708725   21.896789 H          1 MOL1         0.0742
      13    C5      19.617506   18.262525   21.150924 C.3        1 MOL1        -0.1880
      14    H7      20.359787   17.563642   21.560247 H          1 MOL1         0.0742
      15    H8      19.227498   17.793230   20.237332 H          1 MOL1         0.0742
      16    C6      20.293479   19.595597   20.755021 C.3        1 MOL1        -0.1856
      17    H9      20.673119   20.115002   21.642972 H          1 MOL1         0.0742
      18    H10     19.550677   20.261735   20.294911 H          1 MOL1         0.0742
      19    C7      21.454655   19.368789   19.766305 C.3        1 MOL1        -0.2871
      20    H11     22.229806   18.731285   20.211377 H          1 MOL1         0.0754
      21    H12     21.919249   20.324083   19.489539 H          1 MOL1         0.0754
      22    H13     21.099375   18.885607   18.846716 H          1 MOL1         0.0754
@<TRIPOS>BOND
    1     1     2    1
    2     1     3    2
    3     1     4    1
    4     4     5    1
    5     4     6    1
    6     4     7    1
    7     7     8    1
    8     7     9    1
    9     7    10    1
   10    10    11    1
   11    10    12    1
   12    10    13    1
   13    13    14    1
   14    13    15    1
   15    13    16    1
   16    16    17    1
   17    16    18    1
   18    16    19    1
   19    19    20    1
   20    19    21    1
   21    19    22    1
@<TRIPOS>SUBSTRUCTURE
       1 MOL1            1 RESIDUE      1      MOL     
@<SCITEGIC>MOL_PROPERTY
VConf Rank
SciTegic.value.IntegerValue
953

@<SCITEGIC>MOL_PROPERTY
Conf_Id
SciTegic.value.IntegerValue
6

@<SCITEGIC>MOL_PROPERTY
Delta U+W
SciTegic.value.DoubleValue
2.118

@<SCITEGIC>MOL_PROPERTY
U+W
SciTegic.value.DoubleValue
-51.042

@<SCITEGIC>MOL_PROPERTY
Grad RMS
SciTegic.value.DoubleValue
0.000000

@<SCITEGIC>MOL_PROPERTY
U
SciTegic.value.DoubleValue
10.045

@<SCITEGIC>MOL_PROPERTY
W
SciTegic.value.DoubleValue
-61.086

@<SCITEGIC>MOL_PROPERTY
W(PB)
SciTegic.value.DoubleValue
-63.356

@<SCITEGIC>MOL_PROPERTY
W(SA)
SciTegic.value.DoubleValue
2.270

@<SCITEGIC>MOL_PROPERTY
Valence
SciTegic.value.DoubleValue
10.100

@<SCITEGIC>MOL_PROPERTY
Coulomb
SciTegic.value.DoubleValue
-0.883

@<SCITEGIC>MOL_PROPERTY
VdW
SciTegic.value.DoubleValue
0.828

@<SCITEGIC>MOL_PROPERTY
VdW6
SciTegic.value.DoubleValue
-8.177

@<SCITEGIC>MOL_PROPERTY
VdW12
SciTegic.value.DoubleValue
9.004

@<SCITEGIC>MOL_PROPERTY
Bond
SciTegic.value.DoubleValue
0.182

@<SCITEGIC>MOL_PROPERTY
Angle
SciTegic.value.DoubleValue
2.988

@<SCITEGIC>MOL_PROPERTY
Pdih
SciTegic.value.DoubleValue
6.930

@<SCITEGIC>MOL_PROPERTY
Idih
SciTegic.value.DoubleValue
0.001

@<SCITEGIC>MOL_PROPERTY
Tether
SciTegic.value.DoubleValue
0.000

@<TRIPOS>MOLECULE
guest-s21_confgen4.mol2 : confsearch ligand conformer 954
          22          21           1
SMALL
USER_CHARGES
 
@<TRIPOS>ATOM
       1    C1      21.600416   18.671804   20.760437 C.2        1 MOL1         0.6145
       2    O1      21.167588   19.122112   19.717663 O.co2      1 MOL1        -0.6735
       3    O2      21.784238   17.486028   20.953310 O.co2      1 MOL1        -0.6735
       4    C2      22.001528   19.651031   21.862108 C.3        1 MOL1        -0.1985
       5    H1      22.819454   20.255872   21.453823 H          1 MOL1         0.0740
       6    H2      22.418791   19.087605   22.705485 H          1 MOL1         0.0740
       7    C3      20.869925   20.597000   22.353737 C.3        1 MOL1        -0.1882
       8    H3      21.339350   21.461473   22.842357 H          1 MOL1         0.0742
       9    H4      20.317832   20.999586   21.493103 H          1 MOL1         0.0742
      10    C4      19.885291   19.960652   23.365897 C.3        1 MOL1        -0.1880
      11    H5      19.234873   20.755537   23.755882 H          1 MOL1         0.0742
      12    H6      20.442885   19.567918   24.227105 H          1 MOL1         0.0742
      13    C5      19.000059   18.844158   22.767305 C.3        1 MOL1        -0.1880
      14    H7      18.521749   19.206020   21.846804 H          1 MOL1         0.0742
      15    H8      19.621766   17.983676   22.489611 H          1 MOL1         0.0742
      16    C6      17.917580   18.378434   23.763943 C.3        1 MOL1        -0.1856
      17    H9      17.280767   19.228708   24.044761 H          1 MOL1         0.0742
      18    H10     18.394411   18.017843   24.685908 H          1 MOL1         0.0742
      19    C7      17.041483   17.258221   23.168128 C.3        1 MOL1        -0.2871
      20    H11     16.527778   17.602327   22.260899 H          1 MOL1         0.0754
      21    H12     16.278411   16.938345   23.889533 H          1 MOL1         0.0754
      22    H13     17.649307   16.382181   22.906199 H          1 MOL1         0.0754
@<TRIPOS>BOND
    1     1     2    1
    2     1     3    2
    3     1     4    1
    4     4     5    1
    5     4     6    1
    6     4     7    1
    7     7     8    1
    8     7     9    1
    9     7    10    1
   10    10    11    1
   11    10    12    1
   12    10    13    1
   13    13    14    1
   14    13    15    1
   15    13    16    1
   16    16    17    1
   17    16    18    1
   18    16    19    1
   19    19    20    1
   20    19    21    1
   21    19    22    1
@<TRIPOS>SUBSTRUCTURE
       1 MOL1            1 RESIDUE      1      MOL     
@<SCITEGIC>MOL_PROPERTY
VConf Rank
SciTegic.value.IntegerValue
954

@<SCITEGIC>MOL_PROPERTY
Conf_Id
SciTegic.value.IntegerValue
8

@<SCITEGIC>MOL_PROPERTY
Delta U+W
SciTegic.value.DoubleValue
1.886

@<SCITEGIC>MOL_PROPERTY
U+W
SciTegic.value.DoubleValue
-51.274

@<SCITEGIC>MOL_PROPERTY
Grad RMS
SciTegic.value.DoubleValue
0.000000

@<SCITEGIC>MOL_PROPERTY
U
SciTegic.value.DoubleValue
11.237

@<SCITEGIC>MOL_PROPERTY
W
SciTegic.value.DoubleValue
-62.510

@<SCITEGIC>MOL_PROPERTY
W(PB)
SciTegic.value.DoubleValue
-64.777

@<SCITEGIC>MOL_PROPERTY
W(SA)
SciTegic.value.DoubleValue
2.267

@<SCITEGIC>MOL_PROPERTY
Valence
SciTegic.value.DoubleValue
9.029

@<SCITEGIC>MOL_PROPERTY
Coulomb
SciTegic.value.DoubleValue
1.667

@<SCITEGIC>MOL_PROPERTY
VdW
SciTegic.value.DoubleValue
0.540

@<SCITEGIC>MOL_PROPERTY
VdW6
SciTegic.value.DoubleValue
-8.825

@<SCITEGIC>MOL_PROPERTY
VdW12
SciTegic.value.DoubleValue
9.365

@<SCITEGIC>MOL_PROPERTY
Bond
SciTegic.value.DoubleValue
0.186

@<SCITEGIC>MOL_PROPERTY
Angle
SciTegic.value.DoubleValue
3.195

@<SCITEGIC>MOL_PROPERTY
Pdih
SciTegic.value.DoubleValue
5.642

@<SCITEGIC>MOL_PROPERTY
Idih
SciTegic.value.DoubleValue
0.007

@<SCITEGIC>MOL_PROPERTY
Tether
SciTegic.value.DoubleValue
0.000

@<TRIPOS>MOLECULE
guest-s21_confgen4.mol2 : confsearch ligand conformer 955
          22          21           1
SMALL
USER_CHARGES
 
@<TRIPOS>ATOM
       1    C1      20.782134   17.565225   24.988528 C.2        1 MOL1         0.6145
       2    O1      20.995944   16.560828   24.338732 O.co2      1 MOL1        -0.6735
       3    O2      20.241187   17.559033   26.076943 O.co2      1 MOL1        -0.6735
       4    C2      21.243997   18.905283   24.422764 C.3        1 MOL1        -0.1985
       5    H1      21.942900   18.717330   23.600014 H          1 MOL1         0.0740
       6    H2      21.819756   19.408826   25.208047 H          1 MOL1         0.0740
       7    C3      20.086835   19.833054   23.960853 C.3        1 MOL1        -0.1882
       8    H3      19.453767   20.062635   24.829095 H          1 MOL1         0.0742
       9    H4      20.505401   20.791059   23.624163 H          1 MOL1         0.0742
      10    C4      19.196244   19.243687   22.839146 C.3        1 MOL1        -0.1880
      11    H5      18.366112   19.939876   22.665379 H          1 MOL1         0.0742
      12    H6      18.744587   18.302100   23.180236 H          1 MOL1         0.0742
      13    C5      19.955545   19.004114   21.511173 C.3        1 MOL1        -0.1880
      14    H7      20.425209   19.939097   21.176934 H          1 MOL1         0.0742
      15    H8      20.769421   18.287952   21.683363 H          1 MOL1         0.0742
      16    C6      19.058325   18.442957   20.383299 C.3        1 MOL1        -0.1856
      17    H9      18.575129   17.515618   20.720849 H          1 MOL1         0.0742
      18    H10     19.695807   18.167851   19.531766 H          1 MOL1         0.0742
      19    C7      17.986300   19.442016   19.896004 C.3        1 MOL1        -0.2871
      20    H11     17.249574   19.655355   20.680269 H          1 MOL1         0.0754
      21    H12     17.443599   19.031832   19.034539 H          1 MOL1         0.0754
      22    H13     18.444728   20.390101   19.586041 H          1 MOL1         0.0754
@<TRIPOS>BOND
    1     1     2    1
    2     1     3    2
    3     1     4    1
    4     4     5    1
    5     4     6    1
    6     4     7    1
    7     7     8    1
    8     7     9    1
    9     7    10    1
   10    10    11    1
   11    10    12    1
   12    10    13    1
   13    13    14    1
   14    13    15    1
   15    13    16    1
   16    16    17    1
   17    16    18    1
   18    16    19    1
   19    19    20    1
   20    19    21    1
   21    19    22    1
@<TRIPOS>SUBSTRUCTURE
       1 MOL1            1 RESIDUE      1      MOL     
@<SCITEGIC>MOL_PROPERTY
VConf Rank
SciTegic.value.IntegerValue
955

@<SCITEGIC>MOL_PROPERTY
Conf_Id
SciTegic.value.IntegerValue
93

@<SCITEGIC>MOL_PROPERTY
Delta U+W
SciTegic.value.DoubleValue
1.836

@<SCITEGIC>MOL_PROPERTY
U+W
SciTegic.value.DoubleValue
-51.323

@<SCITEGIC>MOL_PROPERTY
Grad RMS
SciTegic.value.DoubleValue
0.000000

@<SCITEGIC>MOL_PROPERTY
U
SciTegic.value.DoubleValue
10.427

@<SCITEGIC>MOL_PROPERTY
W
SciTegic.value.DoubleValue
-61.751

@<SCITEGIC>MOL_PROPERTY
W(PB)
SciTegic.value.DoubleValue
-63.980

@<SCITEGIC>MOL_PROPERTY
W(SA)
SciTegic.value.DoubleValue
2.230

@<SCITEGIC>MOL_PROPERTY
Valence
SciTegic.value.DoubleValue
8.446

@<SCITEGIC>MOL_PROPERTY
Coulomb
SciTegic.value.DoubleValue
1.306

@<SCITEGIC>MOL_PROPERTY
VdW
SciTegic.value.DoubleValue
0.676

@<SCITEGIC>MOL_PROPERTY
VdW6
SciTegic.value.DoubleValue
-8.928

@<SCITEGIC>MOL_PROPERTY
VdW12
SciTegic.value.DoubleValue
9.604

@<SCITEGIC>MOL_PROPERTY
Bond
SciTegic.value.DoubleValue
0.209

@<SCITEGIC>MOL_PROPERTY
Angle
SciTegic.value.DoubleValue
3.066

@<SCITEGIC>MOL_PROPERTY
Pdih
SciTegic.value.DoubleValue
5.170

@<SCITEGIC>MOL_PROPERTY
Idih
SciTegic.value.DoubleValue
0.001

@<SCITEGIC>MOL_PROPERTY
Tether
SciTegic.value.DoubleValue
0.000

@<TRIPOS>MOLECULE
guest-s21_confgen4.mol2 : confsearch ligand conformer 956
          22          21           1
SMALL
USER_CHARGES
 
@<TRIPOS>ATOM
       1    C1      19.333782   22.121353   21.826067 C.2        1 MOL1         0.6145
       2    O1      18.486047   22.585853   21.089256 O.co2      1 MOL1        -0.6735
       3    O2      20.527835   22.220409   21.623112 O.co2      1 MOL1        -0.6735
       4    C2      18.871684   21.401051   23.089710 C.3        1 MOL1        -0.1985
       5    H1      18.155323   22.058835   23.595548 H          1 MOL1         0.0740
       6    H2      19.726509   21.296609   23.767261 H          1 MOL1         0.0740
       7    C3      18.205246   20.022470   22.827937 C.3        1 MOL1        -0.1882
       8    H3      17.854443   19.604838   23.781274 H          1 MOL1         0.0742
       9    H4      17.308575   20.177876   22.212179 H          1 MOL1         0.0742
      10    C4      19.117946   18.988246   22.123600 C.3        1 MOL1        -0.1880
      11    H5      19.445269   19.383178   21.152100 H          1 MOL1         0.0742
      12    H6      18.515540   18.096814   21.908075 H          1 MOL1         0.0742
      13    C5      20.354693   18.584824   22.963333 C.3        1 MOL1        -0.1880
      14    H7      20.968025   19.474683   23.155453 H          1 MOL1         0.0742
      15    H8      20.032408   18.207766   23.943361 H          1 MOL1         0.0742
      16    C6      21.249562   17.530248   22.271182 C.3        1 MOL1        -0.1856
      17    H9      22.169052   17.409100   22.860280 H          1 MOL1         0.0742
      18    H10     21.560553   17.898655   21.283791 H          1 MOL1         0.0742
      19    C7      20.571713   16.150599   22.123209 C.3        1 MOL1        -0.2871
      20    H11     19.713528   16.195429   21.441403 H          1 MOL1         0.0754
      21    H12     20.221459   15.778667   23.094851 H          1 MOL1         0.0754
      22    H13     21.279989   15.417308   21.716358 H          1 MOL1         0.0754
@<TRIPOS>BOND
    1     1     2    1
    2     1     3    2
    3     1     4    1
    4     4     5    1
    5     4     6    1
    6     4     7    1
    7     7     8    1
    8     7     9    1
    9     7    10    1
   10    10    11    1
   11    10    12    1
   12    10    13    1
   13    13    14    1
   14    13    15    1
   15    13    16    1
   16    16    17    1
   17    16    18    1
   18    16    19    1
   19    19    20    1
   20    19    21    1
   21    19    22    1
@<TRIPOS>SUBSTRUCTURE
       1 MOL1            1 RESIDUE      1      MOL     
@<SCITEGIC>MOL_PROPERTY
VConf Rank
SciTegic.value.IntegerValue
956

@<SCITEGIC>MOL_PROPERTY
Conf_Id
SciTegic.value.IntegerValue
70

@<SCITEGIC>MOL_PROPERTY
Delta U+W
SciTegic.value.DoubleValue
1.803

@<SCITEGIC>MOL_PROPERTY
U+W
SciTegic.value.DoubleValue
-51.356

@<SCITEGIC>MOL_PROPERTY
Grad RMS
SciTegic.value.DoubleValue
0.000000

@<SCITEGIC>MOL_PROPERTY
U
SciTegic.value.DoubleValue
10.428

@<SCITEGIC>MOL_PROPERTY
W
SciTegic.value.DoubleValue
-61.784

@<SCITEGIC>MOL_PROPERTY
W(PB)
SciTegic.value.DoubleValue
-64.014

@<SCITEGIC>MOL_PROPERTY
W(SA)
SciTegic.value.DoubleValue
2.230

@<SCITEGIC>MOL_PROPERTY
Valence
SciTegic.value.DoubleValue
8.445

@<SCITEGIC>MOL_PROPERTY
Coulomb
SciTegic.value.DoubleValue
1.306

@<SCITEGIC>MOL_PROPERTY
VdW
SciTegic.value.DoubleValue
0.676

@<SCITEGIC>MOL_PROPERTY
VdW6
SciTegic.value.DoubleValue
-8.929

@<SCITEGIC>MOL_PROPERTY
VdW12
SciTegic.value.DoubleValue
9.605

@<SCITEGIC>MOL_PROPERTY
Bond
SciTegic.value.DoubleValue
0.209

@<SCITEGIC>MOL_PROPERTY
Angle
SciTegic.value.DoubleValue
3.066

@<SCITEGIC>MOL_PROPERTY
Pdih
SciTegic.value.DoubleValue
5.170

@<SCITEGIC>MOL_PROPERTY
Idih
SciTegic.value.DoubleValue
0.001

@<SCITEGIC>MOL_PROPERTY
Tether
SciTegic.value.DoubleValue
0.000

@<TRIPOS>MOLECULE
guest-s21_confgen4.mol2 : confsearch ligand conformer 957
          22          21           1
SMALL
USER_CHARGES
 
@<TRIPOS>ATOM
       1    C1      17.915317   17.425998   24.706170 C.2        1 MOL1         0.6145
       2    O1      18.420814   16.321640   24.748356 O.co2      1 MOL1        -0.6735
       3    O2      16.735872   17.617559   24.484599 O.co2      1 MOL1        -0.6735
       4    C2      18.808248   18.635886   24.966821 C.3        1 MOL1        -0.1985
       5    H1      19.429607   18.403523   25.839724 H          1 MOL1         0.0740
       6    H2      18.173695   19.485650   25.246255 H          1 MOL1         0.0740
       7    C3      19.718036   19.016419   23.769966 C.3        1 MOL1        -0.1882
       8    H3      20.413117   19.805503   24.086944 H          1 MOL1         0.0742
       9    H4      20.328632   18.145708   23.496716 H          1 MOL1         0.0742
      10    C4      18.910071   19.508927   22.545551 C.3        1 MOL1        -0.1880
      11    H5      18.242641   20.322065   22.862071 H          1 MOL1         0.0742
      12    H6      18.261283   18.702151   22.177459 H          1 MOL1         0.0742
      13    C5      19.798101   20.024531   21.388363 C.3        1 MOL1        -0.1880
      14    H7      19.147603   20.464468   20.620120 H          1 MOL1         0.0742
      15    H8      20.442301   20.836701   21.752026 H          1 MOL1         0.0742
      16    C6      20.665313   18.922066   20.739761 C.3        1 MOL1        -0.1856
      17    H9      20.026221   18.086044   20.423694 H          1 MOL1         0.0742
      18    H10     21.378096   18.521357   21.472381 H          1 MOL1         0.0742
      19    C7      21.445491   19.459011   19.522903 C.3        1 MOL1        -0.2871
      20    H11     20.760753   19.833800   18.750880 H          1 MOL1         0.0754
      21    H12     22.058370   18.665620   19.075724 H          1 MOL1         0.0754
      22    H13     22.113869   20.279173   19.816122 H          1 MOL1         0.0754
@<TRIPOS>BOND
    1     1     2    1
    2     1     3    2
    3     1     4    1
    4     4     5    1
    5     4     6    1
    6     4     7    1
    7     7     8    1
    8     7     9    1
    9     7    10    1
   10    10    11    1
   11    10    12    1
   12    10    13    1
   13    13    14    1
   14    13    15    1
   15    13    16    1
   16    16    17    1
   17    16    18    1
   18    16    19    1
   19    19    20    1
   20    19    21    1
   21    19    22    1
@<TRIPOS>SUBSTRUCTURE
       1 MOL1            1 RESIDUE      1      MOL     
@<SCITEGIC>MOL_PROPERTY
VConf Rank
SciTegic.value.IntegerValue
957

@<SCITEGIC>MOL_PROPERTY
Conf_Id
SciTegic.value.IntegerValue
85

@<SCITEGIC>MOL_PROPERTY
Delta U+W
SciTegic.value.DoubleValue
0.707

@<SCITEGIC>MOL_PROPERTY
U+W
SciTegic.value.DoubleValue
-52.452

@<SCITEGIC>MOL_PROPERTY
Grad RMS
SciTegic.value.DoubleValue
0.000000

@<SCITEGIC>MOL_PROPERTY
U
SciTegic.value.DoubleValue
8.925

@<SCITEGIC>MOL_PROPERTY
W
SciTegic.value.DoubleValue
-61.378

@<SCITEGIC>MOL_PROPERTY
W(PB)
SciTegic.value.DoubleValue
-63.661

@<SCITEGIC>MOL_PROPERTY
W(SA)
SciTegic.value.DoubleValue
2.283

@<SCITEGIC>MOL_PROPERTY
Valence
SciTegic.value.DoubleValue
7.881

@<SCITEGIC>MOL_PROPERTY
Coulomb
SciTegic.value.DoubleValue
0.349

@<SCITEGIC>MOL_PROPERTY
VdW
SciTegic.value.DoubleValue
0.695

@<SCITEGIC>MOL_PROPERTY
VdW6
SciTegic.value.DoubleValue
-8.049

@<SCITEGIC>MOL_PROPERTY
VdW12
SciTegic.value.DoubleValue
8.743

@<SCITEGIC>MOL_PROPERTY
Bond
SciTegic.value.DoubleValue
0.156

@<SCITEGIC>MOL_PROPERTY
Angle
SciTegic.value.DoubleValue
2.660

@<SCITEGIC>MOL_PROPERTY
Pdih
SciTegic.value.DoubleValue
5.064

@<SCITEGIC>MOL_PROPERTY
Idih
SciTegic.value.DoubleValue
0.001

@<SCITEGIC>MOL_PROPERTY
Tether
SciTegic.value.DoubleValue
0.000

@<TRIPOS>MOLECULE
guest-s21_confgen4.mol2 : confsearch ligand conformer 958
          22          21           1
SMALL
USER_CHARGES
 
@<TRIPOS>ATOM
       1    C1      18.727204   18.915213   19.244850 C.2        1 MOL1         0.6145
       2    O1      18.046108   17.942607   18.985837 O.co2      1 MOL1        -0.6735
       3    O2      18.404387   20.054186   18.970070 O.co2      1 MOL1        -0.6735
       4    C2      20.072135   18.694556   19.931774 C.3        1 MOL1        -0.1985
       5    H1      20.814176   19.301205   19.399473 H          1 MOL1         0.0740
       6    H2      20.365745   17.646094   19.799958 H          1 MOL1         0.0740
       7    C3      20.082911   19.068380   21.437040 C.3        1 MOL1        -0.1882
       8    H3      21.118861   19.025882   21.796078 H          1 MOL1         0.0742
       9    H4      19.741836   20.105827   21.558071 H          1 MOL1         0.0742
      10    C4      19.206668   18.123108   22.291288 C.3        1 MOL1        -0.1880
      11    H5      19.606961   17.101849   22.232153 H          1 MOL1         0.0742
      12    H6      18.196325   18.081505   21.861965 H          1 MOL1         0.0742
      13    C5      19.080970   18.542058   23.777628 C.3        1 MOL1        -0.1880
      14    H7      18.595489   19.524763   23.851961 H          1 MOL1         0.0742
      15    H8      18.395656   17.833753   24.262927 H          1 MOL1         0.0742
      16    C6      20.413626   18.540547   24.567518 C.3        1 MOL1        -0.1856
      17    H9      21.114300   17.815000   24.131803 H          1 MOL1         0.0742
      18    H10     20.214420   18.195307   25.591444 H          1 MOL1         0.0742
      19    C7      21.071601   19.935740   24.654337 C.3        1 MOL1        -0.2871
      20    H11     21.312462   20.336241   23.663132 H          1 MOL1         0.0754
      21    H12     22.004144   19.885104   25.231067 H          1 MOL1         0.0754
      22    H13     20.405734   20.650421   25.155274 H          1 MOL1         0.0754
@<TRIPOS>BOND
    1     1     2    1
    2     1     3    2
    3     1     4    1
    4     4     5    1
    5     4     6    1
    6     4     7    1
    7     7     8    1
    8     7     9    1
    9     7    10    1
   10    10    11    1
   11    10    12    1
   12    10    13    1
   13    13    14    1
   14    13    15    1
   15    13    16    1
   16    16    17    1
   17    16    18    1
   18    16    19    1
   19    19    20    1
   20    19    21    1
   21    19    22    1
@<TRIPOS>SUBSTRUCTURE
       1 MOL1            1 RESIDUE      1      MOL     
@<SCITEGIC>MOL_PROPERTY
VConf Rank
SciTegic.value.IntegerValue
958

@<SCITEGIC>MOL_PROPERTY
Conf_Id
SciTegic.value.IntegerValue
82

@<SCITEGIC>MOL_PROPERTY
Delta U+W
SciTegic.value.DoubleValue
3.438

@<SCITEGIC>MOL_PROPERTY
U+W
SciTegic.value.DoubleValue
-49.721

@<SCITEGIC>MOL_PROPERTY
Grad RMS
SciTegic.value.DoubleValue
0.000000

@<SCITEGIC>MOL_PROPERTY
U
SciTegic.value.DoubleValue
11.773

@<SCITEGIC>MOL_PROPERTY
W
SciTegic.value.DoubleValue
-61.495

@<SCITEGIC>MOL_PROPERTY
W(PB)
SciTegic.value.DoubleValue
-63.749

@<SCITEGIC>MOL_PROPERTY
W(SA)
SciTegic.value.DoubleValue
2.254

@<SCITEGIC>MOL_PROPERTY
Valence
SciTegic.value.DoubleValue
10.419

@<SCITEGIC>MOL_PROPERTY
Coulomb
SciTegic.value.DoubleValue
0.565

@<SCITEGIC>MOL_PROPERTY
VdW
SciTegic.value.DoubleValue
0.789

@<SCITEGIC>MOL_PROPERTY
VdW6
SciTegic.value.DoubleValue
-8.847

@<SCITEGIC>MOL_PROPERTY
VdW12
SciTegic.value.DoubleValue
9.636

@<SCITEGIC>MOL_PROPERTY
Bond
SciTegic.value.DoubleValue
0.200

@<SCITEGIC>MOL_PROPERTY
Angle
SciTegic.value.DoubleValue
3.187

@<SCITEGIC>MOL_PROPERTY
Pdih
SciTegic.value.DoubleValue
7.032

@<SCITEGIC>MOL_PROPERTY
Idih
SciTegic.value.DoubleValue
0.001

@<SCITEGIC>MOL_PROPERTY
Tether
SciTegic.value.DoubleValue
0.000

@<TRIPOS>MOLECULE
guest-s21_confgen4.mol2 : confsearch ligand conformer 959
          22          21           1
SMALL
USER_CHARGES
 
@<TRIPOS>ATOM
       1    C1      17.555165   16.745615   21.455808 C.2        1 MOL1         0.6145
       2    O1      16.483774   17.166958   21.845121 O.co2      1 MOL1        -0.6735
       3    O2      17.738172   16.305500   20.337887 O.co2      1 MOL1        -0.6735
       4    C2      18.727509   16.748826   22.433049 C.3        1 MOL1        -0.1985
       5    H1      19.489300   16.048499   22.069631 H          1 MOL1         0.0740
       6    H2      18.359435   16.350860   23.386011 H          1 MOL1         0.0740
       7    C3      19.354181   18.148503   22.665165 C.3        1 MOL1        -0.1882
       8    H3      18.571387   18.850826   22.983370 H          1 MOL1         0.0742
       9    H4      20.073468   18.072387   23.490234 H          1 MOL1         0.0742
      10    C4      20.072582   18.694574   21.409463 C.3        1 MOL1        -0.1880
      11    H5      19.380776   18.665143   20.556598 H          1 MOL1         0.0742
      12    H6      20.907994   18.030397   21.149354 H          1 MOL1         0.0742
      13    C5      20.594497   20.146032   21.555756 C.3        1 MOL1        -0.1880
      14    H7      21.029785   20.438665   20.590481 H          1 MOL1         0.0742
      15    H8      19.753959   20.833123   21.724067 H          1 MOL1         0.0742
      16    C6      21.674182   20.340588   22.649522 C.3        1 MOL1        -0.1856
      17    H9      22.405150   21.079756   22.293690 H          1 MOL1         0.0742
      18    H10     22.233789   19.407605   22.803125 H          1 MOL1         0.0742
      19    C7      21.098047   20.847208   23.990578 C.3        1 MOL1        -0.2871
      20    H11     20.599730   21.816539   23.859562 H          1 MOL1         0.0754
      21    H12     21.900626   20.979532   24.727583 H          1 MOL1         0.0754
      22    H13     20.368461   20.146747   24.412433 H          1 MOL1         0.0754
@<TRIPOS>BOND
    1     1     2    1
    2     1     3    2
    3     1     4    1
    4     4     5    1
    5     4     6    1
    6     4     7    1
    7     7     8    1
    8     7     9    1
    9     7    10    1
   10    10    11    1
   11    10    12    1
   12    10    13    1
   13    13    14    1
   14    13    15    1
   15    13    16    1
   16    16    17    1
   17    16    18    1
   18    16    19    1
   19    19    20    1
   20    19    21    1
   21    19    22    1
@<TRIPOS>SUBSTRUCTURE
       1 MOL1            1 RESIDUE      1      MOL     
@<SCITEGIC>MOL_PROPERTY
VConf Rank
SciTegic.value.IntegerValue
959

@<SCITEGIC>MOL_PROPERTY
Conf_Id
SciTegic.value.IntegerValue
94

@<SCITEGIC>MOL_PROPERTY
Delta U+W
SciTegic.value.DoubleValue
3.471

@<SCITEGIC>MOL_PROPERTY
U+W
SciTegic.value.DoubleValue
-49.688

@<SCITEGIC>MOL_PROPERTY
Grad RMS
SciTegic.value.DoubleValue
0.000000

@<SCITEGIC>MOL_PROPERTY
U
SciTegic.value.DoubleValue
11.773

@<SCITEGIC>MOL_PROPERTY
W
SciTegic.value.DoubleValue
-61.461

@<SCITEGIC>MOL_PROPERTY
W(PB)
SciTegic.value.DoubleValue
-63.710

@<SCITEGIC>MOL_PROPERTY
W(SA)
SciTegic.value.DoubleValue
2.248

@<SCITEGIC>MOL_PROPERTY
Valence
SciTegic.value.DoubleValue
10.419

@<SCITEGIC>MOL_PROPERTY
Coulomb
SciTegic.value.DoubleValue
0.566

@<SCITEGIC>MOL_PROPERTY
VdW
SciTegic.value.DoubleValue
0.789

@<SCITEGIC>MOL_PROPERTY
VdW6
SciTegic.value.DoubleValue
-8.847

@<SCITEGIC>MOL_PROPERTY
VdW12
SciTegic.value.DoubleValue
9.636

@<SCITEGIC>MOL_PROPERTY
Bond
SciTegic.value.DoubleValue
0.200

@<SCITEGIC>MOL_PROPERTY
Angle
SciTegic.value.DoubleValue
3.187

@<SCITEGIC>MOL_PROPERTY
Pdih
SciTegic.value.DoubleValue
7.032

@<SCITEGIC>MOL_PROPERTY
Idih
SciTegic.value.DoubleValue
0.001

@<SCITEGIC>MOL_PROPERTY
Tether
SciTegic.value.DoubleValue
0.000

@<TRIPOS>MOLECULE
guest-s21_confgen4.mol2 : confsearch ligand conformer 960
          22          21           1
SMALL
USER_CHARGES
 
@<TRIPOS>ATOM
       1    C1      19.652413   21.683873   24.428136 C.2        1 MOL1         0.6145
       2    O1      19.466127   22.868628   24.232304 O.co2      1 MOL1        -0.6735
       3    O2      20.301451   21.249995   25.359304 O.co2      1 MOL1        -0.6735
       4    C2      19.054949   20.688407   23.440199 C.3        1 MOL1        -0.1985
       5    H1      18.114895   21.106492   23.061074 H          1 MOL1         0.0740
       6    H2      18.805915   19.776512   23.994693 H          1 MOL1         0.0740
       7    C3      20.010137   20.365060   22.262270 C.3        1 MOL1        -0.1882
       8    H3      20.305618   21.306364   21.778808 H          1 MOL1         0.0742
       9    H4      20.935604   19.919893   22.651068 H          1 MOL1         0.0742
      10    C4      19.380960   19.436945   21.193086 C.3        1 MOL1        -0.1880
      11    H5      20.098964   19.301555   20.373566 H          1 MOL1         0.0742
      12    H6      18.514828   19.945231   20.748106 H          1 MOL1         0.0742
      13    C5      18.926596   18.046585   21.710406 C.3        1 MOL1        -0.1880
      14    H7      18.092471   18.174726   22.412592 H          1 MOL1         0.0742
      15    H8      18.517717   17.475628   20.865793 H          1 MOL1         0.0742
      16    C6      20.032030   17.203909   22.392933 C.3        1 MOL1        -0.1856
      17    H9      19.589409   16.259812   22.738874 H          1 MOL1         0.0742
      18    H10     20.396605   17.716346   23.293208 H          1 MOL1         0.0742
      19    C7      21.218789   16.883402   21.458760 C.3        1 MOL1        -0.2871
      20    H11     20.874556   16.384686   20.543478 H          1 MOL1         0.0754
      21    H12     21.933040   16.217205   21.959532 H          1 MOL1         0.0754
      22    H13     21.758090   17.795113   21.172589 H          1 MOL1         0.0754
@<TRIPOS>BOND
    1     1     2    1
    2     1     3    2
    3     1     4    1
    4     4     5    1
    5     4     6    1
    6     4     7    1
    7     7     8    1
    8     7     9    1
    9     7    10    1
   10    10    11    1
   11    10    12    1
   12    10    13    1
   13    13    14    1
   14    13    15    1
   15    13    16    1
   16    16    17    1
   17    16    18    1
   18    16    19    1
   19    19    20    1
   20    19    21    1
   21    19    22    1
@<TRIPOS>SUBSTRUCTURE
       1 MOL1            1 RESIDUE      1      MOL     
@<SCITEGIC>MOL_PROPERTY
VConf Rank
SciTegic.value.IntegerValue
960

@<SCITEGIC>MOL_PROPERTY
Conf_Id
SciTegic.value.IntegerValue
56

@<SCITEGIC>MOL_PROPERTY
Delta U+W
SciTegic.value.DoubleValue
0.853

@<SCITEGIC>MOL_PROPERTY
U+W
SciTegic.value.DoubleValue
-52.307

@<SCITEGIC>MOL_PROPERTY
Grad RMS
SciTegic.value.DoubleValue
0.000000

@<SCITEGIC>MOL_PROPERTY
U
SciTegic.value.DoubleValue
8.874

@<SCITEGIC>MOL_PROPERTY
W
SciTegic.value.DoubleValue
-61.181

@<SCITEGIC>MOL_PROPERTY
W(PB)
SciTegic.value.DoubleValue
-63.413

@<SCITEGIC>MOL_PROPERTY
W(SA)
SciTegic.value.DoubleValue
2.232

@<SCITEGIC>MOL_PROPERTY
Valence
SciTegic.value.DoubleValue
8.479

@<SCITEGIC>MOL_PROPERTY
Coulomb
SciTegic.value.DoubleValue
-0.357

@<SCITEGIC>MOL_PROPERTY
VdW
SciTegic.value.DoubleValue
0.753

@<SCITEGIC>MOL_PROPERTY
VdW6
SciTegic.value.DoubleValue
-9.081

@<SCITEGIC>MOL_PROPERTY
VdW12
SciTegic.value.DoubleValue
9.833

@<SCITEGIC>MOL_PROPERTY
Bond
SciTegic.value.DoubleValue
0.221

@<SCITEGIC>MOL_PROPERTY
Angle
SciTegic.value.DoubleValue
3.208

@<SCITEGIC>MOL_PROPERTY
Pdih
SciTegic.value.DoubleValue
5.050

@<SCITEGIC>MOL_PROPERTY
Idih
SciTegic.value.DoubleValue
0.000

@<SCITEGIC>MOL_PROPERTY
Tether
SciTegic.value.DoubleValue
0.000

@<TRIPOS>MOLECULE
guest-s21_confgen4.mol2 : confsearch ligand conformer 961
          22          21           1
SMALL
USER_CHARGES
 
@<TRIPOS>ATOM
       1    C1      17.158426   18.571834   25.186249 C.2        1 MOL1         0.6145
       2    O1      17.328411   17.371010   25.273003 O.co2      1 MOL1        -0.6735
       3    O2      16.387609   19.185772   25.896773 O.co2      1 MOL1        -0.6735
       4    C2      17.936834   19.375173   24.143055 C.3        1 MOL1        -0.1985
       5    H1      18.493600   20.153305   24.678303 H          1 MOL1         0.0740
       6    H2      17.202552   19.884990   23.508323 H          1 MOL1         0.0740
       7    C3      18.908887   18.548199   23.260085 C.3        1 MOL1        -0.1882
       8    H3      19.637910   18.035132   23.902561 H          1 MOL1         0.0742
       9    H4      18.345678   17.766693   22.731375 H          1 MOL1         0.0742
      10    C4      19.651501   19.435385   22.237374 C.3        1 MOL1        -0.1880
      11    H5      20.213776   20.215862   22.768252 H          1 MOL1         0.0742
      12    H6      18.920665   19.947346   21.596355 H          1 MOL1         0.0742
      13    C5      20.617787   18.610804   21.360068 C.3        1 MOL1        -0.1880
      14    H7      21.348807   18.098589   22.000671 H          1 MOL1         0.0742
      15    H8      20.055934   17.830190   20.828947 H          1 MOL1         0.0742
      16    C6      21.360278   19.496762   20.337870 C.3        1 MOL1        -0.1856
      17    H9      21.925179   20.277661   20.865657 H          1 MOL1         0.0742
      18    H10     20.632217   20.009320   19.693909 H          1 MOL1         0.0742
      19    C7      22.324129   18.669580   19.463742 C.3        1 MOL1        -0.2871
      20    H11     23.083299   18.170566   20.080226 H          1 MOL1         0.0754
      21    H12     22.843282   19.314833   18.743172 H          1 MOL1         0.0754
      22    H13     21.780648   17.900269   18.899653 H          1 MOL1         0.0754
@<TRIPOS>BOND
    1     1     2    1
    2     1     3    2
    3     1     4    1
    4     4     5    1
    5     4     6    1
    6     4     7    1
    7     7     8    1
    8     7     9    1
    9     7    10    1
   10    10    11    1
   11    10    12    1
   12    10    13    1
   13    13    14    1
   14    13    15    1
   15    13    16    1
   16    16    17    1
   17    16    18    1
   18    16    19    1
   19    19    20    1
   20    19    21    1
   21    19    22    1
@<TRIPOS>SUBSTRUCTURE
       1 MOL1            1 RESIDUE      1      MOL     
@<SCITEGIC>MOL_PROPERTY
VConf Rank
SciTegic.value.IntegerValue
961

@<SCITEGIC>MOL_PROPERTY
Conf_Id
SciTegic.value.IntegerValue
0

@<SCITEGIC>MOL_PROPERTY
Delta U+W
SciTegic.value.DoubleValue
0.000

@<SCITEGIC>MOL_PROPERTY
U+W
SciTegic.value.DoubleValue
-53.159

@<SCITEGIC>MOL_PROPERTY
Grad RMS
SciTegic.value.DoubleValue
0.000000

@<SCITEGIC>MOL_PROPERTY
U
SciTegic.value.DoubleValue
6.763

@<SCITEGIC>MOL_PROPERTY
W
SciTegic.value.DoubleValue
-59.922

@<SCITEGIC>MOL_PROPERTY
W(PB)
SciTegic.value.DoubleValue
-62.256

@<SCITEGIC>MOL_PROPERTY
W(SA)
SciTegic.value.DoubleValue
2.334

@<SCITEGIC>MOL_PROPERTY
Valence
SciTegic.value.DoubleValue
7.600

@<SCITEGIC>MOL_PROPERTY
Coulomb
SciTegic.value.DoubleValue
-2.139

@<SCITEGIC>MOL_PROPERTY
VdW
SciTegic.value.DoubleValue
1.302

@<SCITEGIC>MOL_PROPERTY
VdW6
SciTegic.value.DoubleValue
-6.786

@<SCITEGIC>MOL_PROPERTY
VdW12
SciTegic.value.DoubleValue
8.088

@<SCITEGIC>MOL_PROPERTY
Bond
SciTegic.value.DoubleValue
0.134

@<SCITEGIC>MOL_PROPERTY
Angle
SciTegic.value.DoubleValue
2.720

@<SCITEGIC>MOL_PROPERTY
Pdih
SciTegic.value.DoubleValue
4.746

@<SCITEGIC>MOL_PROPERTY
Idih
SciTegic.value.DoubleValue
0.000

@<SCITEGIC>MOL_PROPERTY
Tether
SciTegic.value.DoubleValue
0.000

@<TRIPOS>MOLECULE
guest-s21_confgen4.mol2 : confsearch ligand conformer 962
          22          21           1
SMALL
USER_CHARGES
 
@<TRIPOS>ATOM
       1    C1      15.812350   19.075922   21.631405 C.2        1 MOL1         0.6145
       2    O1      15.466698   19.318514   20.492061 O.co2      1 MOL1        -0.6735
       3    O2      15.184116   19.419717   22.613015 O.co2      1 MOL1        -0.6735
       4    C2      17.118126   18.317637   21.841560 C.3        1 MOL1        -0.1985
       5    H1      17.249820   17.626278   21.000523 H          1 MOL1         0.0740
       6    H2      17.016760   17.709394   22.748438 H          1 MOL1         0.0740
       7    C3      18.345452   19.254406   21.960662 C.3        1 MOL1        -0.1882
       8    H3      18.425228   19.865438   21.050801 H          1 MOL1         0.0742
       9    H4      18.192177   19.948550   22.798662 H          1 MOL1         0.0742
      10    C4      19.654150   18.463081   22.172783 C.3        1 MOL1        -0.1880
      11    H5      19.803720   17.769321   21.334035 H          1 MOL1         0.0742
      12    H6      19.570593   17.852415   23.082331 H          1 MOL1         0.0742
      13    C5      20.875810   19.399468   22.291181 C.3        1 MOL1        -0.1880
      14    H7      20.959708   20.010323   21.381817 H          1 MOL1         0.0742
      15    H8      20.726624   20.093407   23.129823 H          1 MOL1         0.0742
      16    C6      22.184167   18.609328   22.503194 C.3        1 MOL1        -0.1856
      17    H9      22.337909   17.915404   21.665155 H          1 MOL1         0.0742
      18    H10     22.104823   17.998471   23.413158 H          1 MOL1         0.0742
      19    C7      23.401728   19.547956   22.620940 C.3        1 MOL1        -0.2871
      20    H11     23.288902   20.232827   23.471604 H          1 MOL1         0.0754
      21    H12     23.523634   20.149259   21.710456 H          1 MOL1         0.0754
      22    H13     24.322783   18.969863   22.771131 H          1 MOL1         0.0754
@<TRIPOS>BOND
    1     1     2    1
    2     1     3    2
    3     1     4    1
    4     4     5    1
    5     4     6    1
    6     4     7    1
    7     7     8    1
    8     7     9    1
    9     7    10    1
   10    10    11    1
   11    10    12    1
   12    10    13    1
   13    13    14    1
   14    13    15    1
   15    13    16    1
   16    16    17    1
   17    16    18    1
   18    16    19    1
   19    19    20    1
   20    19    21    1
   21    19    22    1
@<TRIPOS>SUBSTRUCTURE
       1 MOL1            1 RESIDUE      1      MOL     
@<SCITEGIC>MOL_PROPERTY
VConf Rank
SciTegic.value.IntegerValue
962

@<SCITEGIC>MOL_PROPERTY
Conf_Id
SciTegic.value.IntegerValue
10

@<SCITEGIC>MOL_PROPERTY
Delta U+W
SciTegic.value.DoubleValue
-1.291

@<SCITEGIC>MOL_PROPERTY
U+W
SciTegic.value.DoubleValue
-54.451

@<SCITEGIC>MOL_PROPERTY
Grad RMS
SciTegic.value.DoubleValue
0.000000

@<SCITEGIC>MOL_PROPERTY
U
SciTegic.value.DoubleValue
5.779

@<SCITEGIC>MOL_PROPERTY
W
SciTegic.value.DoubleValue
-60.230

@<SCITEGIC>MOL_PROPERTY
W(PB)
SciTegic.value.DoubleValue
-62.557

@<SCITEGIC>MOL_PROPERTY
W(SA)
SciTegic.value.DoubleValue
2.328

@<SCITEGIC>MOL_PROPERTY
Valence
SciTegic.value.DoubleValue
7.101

@<SCITEGIC>MOL_PROPERTY
Coulomb
SciTegic.value.DoubleValue
-2.079

@<SCITEGIC>MOL_PROPERTY
VdW
SciTegic.value.DoubleValue
0.757

@<SCITEGIC>MOL_PROPERTY
VdW6
SciTegic.value.DoubleValue
-6.496

@<SCITEGIC>MOL_PROPERTY
VdW12
SciTegic.value.DoubleValue
7.253

@<SCITEGIC>MOL_PROPERTY
Bond
SciTegic.value.DoubleValue
0.100

@<SCITEGIC>MOL_PROPERTY
Angle
SciTegic.value.DoubleValue
2.262

@<SCITEGIC>MOL_PROPERTY
Pdih
SciTegic.value.DoubleValue
4.738

@<SCITEGIC>MOL_PROPERTY
Idih
SciTegic.value.DoubleValue
0.001

@<SCITEGIC>MOL_PROPERTY
Tether
SciTegic.value.DoubleValue
0.000

@<TRIPOS>MOLECULE
guest-s21_confgen4.mol2 : confsearch ligand conformer 963
          22          21           1
SMALL
USER_CHARGES
 
@<TRIPOS>ATOM
       1    C1      23.640806   19.502436   23.042942 C.2        1 MOL1         0.6145
       2    O1      24.382494   19.012294   22.214623 O.co2      1 MOL1        -0.6735
       3    O2      23.938665   20.458499   23.731186 O.co2      1 MOL1        -0.6735
       4    C2      22.251839   18.897503   23.213340 C.3        1 MOL1        -0.1985
       5    H1      21.956400   19.012696   24.263146 H          1 MOL1         0.0740
       6    H2      22.321744   17.821682   23.012392 H          1 MOL1         0.0740
       7    C3      21.194775   19.546767   22.286397 C.3        1 MOL1        -0.1882
       8    H3      21.146839   20.625373   22.490904 H          1 MOL1         0.0742
       9    H4      21.511231   19.434039   21.240119 H          1 MOL1         0.0742
      10    C4      19.797905   18.917147   22.477910 C.3        1 MOL1        -0.1880
      11    H5      19.483305   19.033163   23.524056 H          1 MOL1         0.0742
      12    H6      19.858671   17.839365   22.278259 H          1 MOL1         0.0742
      13    C5      18.747184   19.566130   21.547822 C.3        1 MOL1        -0.1880
      14    H7      18.748940   20.652712   21.709899 H          1 MOL1         0.0742
      15    H8      19.032881   19.407577   20.498931 H          1 MOL1         0.0742
      16    C6      17.312222   19.037871   21.778332 C.3        1 MOL1        -0.1856
      17    H9      16.616579   19.629199   21.167065 H          1 MOL1         0.0742
      18    H10     17.020543   19.200504   22.825129 H          1 MOL1         0.0742
      19    C7      17.144880   17.545702   21.418281 C.3        1 MOL1        -0.2871
      20    H11     16.093961   17.243443   21.513817 H          1 MOL1         0.0754
      21    H12     17.736381   16.904176   22.083319 H          1 MOL1         0.0754
      22    H13     17.459176   17.353369   20.384182 H          1 MOL1         0.0754
@<TRIPOS>BOND
    1     1     2    1
    2     1     3    2
    3     1     4    1
    4     4     5    1
    5     4     6    1
    6     4     7    1
    7     7     8    1
    8     7     9    1
    9     7    10    1
   10    10    11    1
   11    10    12    1
   12    10    13    1
   13    13    14    1
   14    13    15    1
   15    13    16    1
   16    16    17    1
   17    16    18    1
   18    16    19    1
   19    19    20    1
   20    19    21    1
   21    19    22    1
@<TRIPOS>SUBSTRUCTURE
       1 MOL1            1 RESIDUE      1      MOL     
@<SCITEGIC>MOL_PROPERTY
VConf Rank
SciTegic.value.IntegerValue
963

@<SCITEGIC>MOL_PROPERTY
Conf_Id
SciTegic.value.IntegerValue
37

@<SCITEGIC>MOL_PROPERTY
Delta U+W
SciTegic.value.DoubleValue
-0.345

@<SCITEGIC>MOL_PROPERTY
U+W
SciTegic.value.DoubleValue
-53.504

@<SCITEGIC>MOL_PROPERTY
Grad RMS
SciTegic.value.DoubleValue
0.000000

@<SCITEGIC>MOL_PROPERTY
U
SciTegic.value.DoubleValue
6.751

@<SCITEGIC>MOL_PROPERTY
W
SciTegic.value.DoubleValue
-60.255

@<SCITEGIC>MOL_PROPERTY
W(PB)
SciTegic.value.DoubleValue
-62.592

@<SCITEGIC>MOL_PROPERTY
W(SA)
SciTegic.value.DoubleValue
2.336

@<SCITEGIC>MOL_PROPERTY
Valence
SciTegic.value.DoubleValue
7.602

@<SCITEGIC>MOL_PROPERTY
Coulomb
SciTegic.value.DoubleValue
-1.744

@<SCITEGIC>MOL_PROPERTY
VdW
SciTegic.value.DoubleValue
0.894

@<SCITEGIC>MOL_PROPERTY
VdW6
SciTegic.value.DoubleValue
-7.110

@<SCITEGIC>MOL_PROPERTY
VdW12
SciTegic.value.DoubleValue
8.004

@<SCITEGIC>MOL_PROPERTY
Bond
SciTegic.value.DoubleValue
0.131

@<SCITEGIC>MOL_PROPERTY
Angle
SciTegic.value.DoubleValue
2.489

@<SCITEGIC>MOL_PROPERTY
Pdih
SciTegic.value.DoubleValue
4.982

@<SCITEGIC>MOL_PROPERTY
Idih
SciTegic.value.DoubleValue
0.001

@<SCITEGIC>MOL_PROPERTY
Tether
SciTegic.value.DoubleValue
0.000

@<TRIPOS>MOLECULE
guest-s21_confgen4.mol2 : confsearch ligand conformer 964
          22          21           1
SMALL
USER_CHARGES
 
@<TRIPOS>ATOM
       1    C1      23.309985   17.543451   21.392666 C.2        1 MOL1         0.6145
       2    O1      23.281337   16.729379   20.491047 O.co2      1 MOL1        -0.6735
       3    O2      24.150369   17.546425   22.270278 O.co2      1 MOL1        -0.6735
       4    C2      22.218507   18.606881   21.437453 C.3        1 MOL1        -0.1985
       5    H1      21.931193   18.843895   20.405982 H          1 MOL1         0.0740
       6    H2      22.647775   19.517737   21.871868 H          1 MOL1         0.0740
       7    C3      20.977161   18.161417   22.249103 C.3        1 MOL1        -0.1882
       8    H3      20.566635   17.241926   21.809158 H          1 MOL1         0.0742
       9    H4      21.284151   17.914920   23.275021 H          1 MOL1         0.0742
      10    C4      19.887381   19.254948   22.279441 C.3        1 MOL1        -0.1880
      11    H5      19.593460   19.498562   21.250155 H          1 MOL1         0.0742
      12    H6      20.299901   20.172064   22.721687 H          1 MOL1         0.0742
      13    C5      18.648896   18.803926   23.087523 C.3        1 MOL1        -0.1880
      14    H7      18.203718   17.916022   22.618078 H          1 MOL1         0.0742
      15    H8      18.970129   18.496634   24.092170 H          1 MOL1         0.0742
      16    C6      17.574032   19.906280   23.231727 C.3        1 MOL1        -0.1856
      17    H9      18.014122   20.793887   23.706896 H          1 MOL1         0.0742
      18    H10     16.789776   19.546901   23.912185 H          1 MOL1         0.0742
      19    C7      16.922930   20.304624   21.889491 C.3        1 MOL1        -0.2871
      20    H11     16.501955   19.427319   21.381307 H          1 MOL1         0.0754
      21    H12     17.649085   20.777366   21.216499 H          1 MOL1         0.0754
      22    H13     16.108728   21.021782   22.055867 H          1 MOL1         0.0754
@<TRIPOS>BOND
    1     1     2    1
    2     1     3    2
    3     1     4    1
    4     4     5    1
    5     4     6    1
    6     4     7    1
    7     7     8    1
    8     7     9    1
    9     7    10    1
   10    10    11    1
   11    10    12    1
   12    10    13    1
   13    13    14    1
   14    13    15    1
   15    13    16    1
   16    16    17    1
   17    16    18    1
   18    16    19    1
   19    19    20    1
   20    19    21    1
   21    19    22    1
@<TRIPOS>SUBSTRUCTURE
       1 MOL1            1 RESIDUE      1      MOL     
@<SCITEGIC>MOL_PROPERTY
VConf Rank
SciTegic.value.IntegerValue
964

@<SCITEGIC>MOL_PROPERTY
Conf_Id
SciTegic.value.IntegerValue
38

@<SCITEGIC>MOL_PROPERTY
Delta U+W
SciTegic.value.DoubleValue
-0.439

@<SCITEGIC>MOL_PROPERTY
U+W
SciTegic.value.DoubleValue
-53.598

@<SCITEGIC>MOL_PROPERTY
Grad RMS
SciTegic.value.DoubleValue
0.000000

@<SCITEGIC>MOL_PROPERTY
U
SciTegic.value.DoubleValue
6.751

@<SCITEGIC>MOL_PROPERTY
W
SciTegic.value.DoubleValue
-60.350

@<SCITEGIC>MOL_PROPERTY
W(PB)
SciTegic.value.DoubleValue
-62.659

@<SCITEGIC>MOL_PROPERTY
W(SA)
SciTegic.value.DoubleValue
2.309

@<SCITEGIC>MOL_PROPERTY
Valence
SciTegic.value.DoubleValue
7.602

@<SCITEGIC>MOL_PROPERTY
Coulomb
SciTegic.value.DoubleValue
-1.744

@<SCITEGIC>MOL_PROPERTY
VdW
SciTegic.value.DoubleValue
0.893

@<SCITEGIC>MOL_PROPERTY
VdW6
SciTegic.value.DoubleValue
-7.110

@<SCITEGIC>MOL_PROPERTY
VdW12
SciTegic.value.DoubleValue
8.004

@<SCITEGIC>MOL_PROPERTY
Bond
SciTegic.value.DoubleValue
0.131

@<SCITEGIC>MOL_PROPERTY
Angle
SciTegic.value.DoubleValue
2.489

@<SCITEGIC>MOL_PROPERTY
Pdih
SciTegic.value.DoubleValue
4.981

@<SCITEGIC>MOL_PROPERTY
Idih
SciTegic.value.DoubleValue
0.001

@<SCITEGIC>MOL_PROPERTY
Tether
SciTegic.value.DoubleValue
0.000

@<TRIPOS>MOLECULE
guest-s21_confgen4.mol2 : confsearch ligand conformer 965
          22          21           1
SMALL
USER_CHARGES
 
@<TRIPOS>ATOM
       1    C1      22.635737   21.434579   23.065942 C.2        1 MOL1         0.6145
       2    O1      23.789256   21.286350   22.713830 O.co2      1 MOL1        -0.6735
       3    O2      22.301846   22.142108   23.995701 O.co2      1 MOL1        -0.6735
       4    C2      21.549913   20.673128   22.313965 C.3        1 MOL1        -0.1985
       5    H1      21.868900   20.568511   21.270069 H          1 MOL1         0.0740
       6    H2      20.646164   21.292549   22.317835 H          1 MOL1         0.0740
       7    C3      21.261430   19.278207   22.927628 C.3        1 MOL1        -0.1882
       8    H3      22.207193   18.723112   22.997257 H          1 MOL1         0.0742
       9    H4      20.896067   19.397790   23.956950 H          1 MOL1         0.0742
      10    C4      20.253576   18.436091   22.109219 C.3        1 MOL1        -0.1880
      11    H5      20.226206   17.426990   22.539678 H          1 MOL1         0.0742
      12    H6      20.617691   18.325606   21.078743 H          1 MOL1         0.0742
      13    C5      18.823052   19.028951   22.097458 C.3        1 MOL1        -0.1880
      14    H7      18.459773   19.141044   23.128073 H          1 MOL1         0.0742
      15    H8      18.848450   20.036887   21.664445 H          1 MOL1         0.0742
      16    C6      17.815124   18.184617   21.283028 C.3        1 MOL1        -0.1856
      17    H9      18.180600   18.060444   20.254291 H          1 MOL1         0.0742
      18    H10     16.869539   18.739531   21.211021 H          1 MOL1         0.0742
      19    C7      17.529803   16.800154   21.904726 C.3        1 MOL1        -0.2871
      20    H11     18.420792   16.160424   21.887190 H          1 MOL1         0.0754
      21    H12     16.740089   16.283593   21.343979 H          1 MOL1         0.0754
      22    H13     17.195756   16.898172   22.945845 H          1 MOL1         0.0754
@<TRIPOS>BOND
    1     1     2    1
    2     1     3    2
    3     1     4    1
    4     4     5    1
    5     4     6    1
    6     4     7    1
    7     7     8    1
    8     7     9    1
    9     7    10    1
   10    10    11    1
   11    10    12    1
   12    10    13    1
   13    13    14    1
   14    13    15    1
   15    13    16    1
   16    16    17    1
   17    16    18    1
   18    16    19    1
   19    19    20    1
   20    19    21    1
   21    19    22    1
@<TRIPOS>SUBSTRUCTURE
       1 MOL1            1 RESIDUE      1      MOL     
@<SCITEGIC>MOL_PROPERTY
VConf Rank
SciTegic.value.IntegerValue
965

@<SCITEGIC>MOL_PROPERTY
Conf_Id
SciTegic.value.IntegerValue
60

@<SCITEGIC>MOL_PROPERTY
Delta U+W
SciTegic.value.DoubleValue
0.386

@<SCITEGIC>MOL_PROPERTY
U+W
SciTegic.value.DoubleValue
-52.773

@<SCITEGIC>MOL_PROPERTY
Grad RMS
SciTegic.value.DoubleValue
0.000000

@<SCITEGIC>MOL_PROPERTY
U
SciTegic.value.DoubleValue
7.689

@<SCITEGIC>MOL_PROPERTY
W
SciTegic.value.DoubleValue
-60.463

@<SCITEGIC>MOL_PROPERTY
W(PB)
SciTegic.value.DoubleValue
-62.772

@<SCITEGIC>MOL_PROPERTY
W(SA)
SciTegic.value.DoubleValue
2.309

@<SCITEGIC>MOL_PROPERTY
Valence
SciTegic.value.DoubleValue
8.197

@<SCITEGIC>MOL_PROPERTY
Coulomb
SciTegic.value.DoubleValue
-1.561

@<SCITEGIC>MOL_PROPERTY
VdW
SciTegic.value.DoubleValue
1.053

@<SCITEGIC>MOL_PROPERTY
VdW6
SciTegic.value.DoubleValue
-7.737

@<SCITEGIC>MOL_PROPERTY
VdW12
SciTegic.value.DoubleValue
8.790

@<SCITEGIC>MOL_PROPERTY
Bond
SciTegic.value.DoubleValue
0.181

@<SCITEGIC>MOL_PROPERTY
Angle
SciTegic.value.DoubleValue
2.780

@<SCITEGIC>MOL_PROPERTY
Pdih
SciTegic.value.DoubleValue
5.235

@<SCITEGIC>MOL_PROPERTY
Idih
SciTegic.value.DoubleValue
0.001

@<SCITEGIC>MOL_PROPERTY
Tether
SciTegic.value.DoubleValue
0.000

@<TRIPOS>MOLECULE
guest-s21_confgen4.mol2 : confsearch ligand conformer 966
          22          21           1
SMALL
USER_CHARGES
 
@<TRIPOS>ATOM
       1    C1      21.652500   15.635950   21.972417 C.2        1 MOL1         0.6145
       2    O1      21.722654   15.113286   23.067147 O.co2      1 MOL1        -0.6735
       3    O2      22.358095   15.326483   21.032776 O.co2      1 MOL1        -0.6735
       4    C2      20.638962   16.757247   21.773109 C.3        1 MOL1        -0.1985
       5    H1      19.769748   16.535304   22.402132 H          1 MOL1         0.0740
       6    H2      20.302029   16.729489   20.729979 H          1 MOL1         0.0740
       7    C3      21.217971   18.155812   22.111306 C.3        1 MOL1        -0.1882
       8    H3      21.506858   18.187710   23.170939 H          1 MOL1         0.0742
       9    H4      22.141422   18.302220   21.534028 H          1 MOL1         0.0742
      10    C4      20.249478   19.321323   21.797737 C.3        1 MOL1        -0.1880
      11    H5      19.956296   19.281643   20.739844 H          1 MOL1         0.0742
      12    H6      20.796328   20.262949   21.934199 H          1 MOL1         0.0742
      13    C5      18.984475   19.327387   22.690905 C.3        1 MOL1        -0.1880
      14    H7      18.434974   18.387638   22.553065 H          1 MOL1         0.0742
      15    H8      19.277846   19.365154   23.748832 H          1 MOL1         0.0742
      16    C6      18.019014   20.495057   22.380191 C.3        1 MOL1        -0.1856
      17    H9      17.094260   20.348647   22.955205 H          1 MOL1         0.0742
      18    H10     17.732176   20.467587   21.319879 H          1 MOL1         0.0742
      19    C7      18.601780   21.882666   22.725997 C.3        1 MOL1        -0.2871
      20    H11     18.927567   21.922118   23.773580 H          1 MOL1         0.0754
      21    H12     17.844984   22.663892   22.578130 H          1 MOL1         0.0754
      22    H13     19.460035   22.128322   22.088442 H          1 MOL1         0.0754
@<TRIPOS>BOND
    1     1     2    1
    2     1     3    2
    3     1     4    1
    4     4     5    1
    5     4     6    1
    6     4     7    1
    7     7     8    1
    8     7     9    1
    9     7    10    1
   10    10    11    1
   11    10    12    1
   12    10    13    1
   13    13    14    1
   14    13    15    1
   15    13    16    1
   16    16    17    1
   17    16    18    1
   18    16    19    1
   19    19    20    1
   20    19    21    1
   21    19    22    1
@<TRIPOS>SUBSTRUCTURE
       1 MOL1            1 RESIDUE      1      MOL     
@<SCITEGIC>MOL_PROPERTY
VConf Rank
SciTegic.value.IntegerValue
966

@<SCITEGIC>MOL_PROPERTY
Conf_Id
SciTegic.value.IntegerValue
28

@<SCITEGIC>MOL_PROPERTY
Delta U+W
SciTegic.value.DoubleValue
0.351

@<SCITEGIC>MOL_PROPERTY
U+W
SciTegic.value.DoubleValue
-52.808

@<SCITEGIC>MOL_PROPERTY
Grad RMS
SciTegic.value.DoubleValue
0.000000

@<SCITEGIC>MOL_PROPERTY
U
SciTegic.value.DoubleValue
7.689

@<SCITEGIC>MOL_PROPERTY
W
SciTegic.value.DoubleValue
-60.498

@<SCITEGIC>MOL_PROPERTY
W(PB)
SciTegic.value.DoubleValue
-62.768

@<SCITEGIC>MOL_PROPERTY
W(SA)
SciTegic.value.DoubleValue
2.270

@<SCITEGIC>MOL_PROPERTY
Valence
SciTegic.value.DoubleValue
8.197

@<SCITEGIC>MOL_PROPERTY
Coulomb
SciTegic.value.DoubleValue
-1.561

@<SCITEGIC>MOL_PROPERTY
VdW
SciTegic.value.DoubleValue
1.053

@<SCITEGIC>MOL_PROPERTY
VdW6
SciTegic.value.DoubleValue
-7.737

@<SCITEGIC>MOL_PROPERTY
VdW12
SciTegic.value.DoubleValue
8.791

@<SCITEGIC>MOL_PROPERTY
Bond
SciTegic.value.DoubleValue
0.181

@<SCITEGIC>MOL_PROPERTY
Angle
SciTegic.value.DoubleValue
2.780

@<SCITEGIC>MOL_PROPERTY
Pdih
SciTegic.value.DoubleValue
5.235

@<SCITEGIC>MOL_PROPERTY
Idih
SciTegic.value.DoubleValue
0.001

@<SCITEGIC>MOL_PROPERTY
Tether
SciTegic.value.DoubleValue
0.000

@<TRIPOS>MOLECULE
guest-s21_confgen4.mol2 : confsearch ligand conformer 967
          22          21           1
SMALL
USER_CHARGES
 
@<TRIPOS>ATOM
       1    C1      21.240492   20.838211   19.365957 C.2        1 MOL1         0.6145
       2    O1      22.286716   21.432325   19.536000 O.co2      1 MOL1        -0.6735
       3    O2      20.975660   20.217240   18.355653 O.co2      1 MOL1        -0.6735
       4    C2      20.211248   20.856391   20.490523 C.3        1 MOL1        -0.1985
       5    H1      19.212609   20.815205   20.039221 H          1 MOL1         0.0740
       6    H2      20.292590   21.818214   21.011002 H          1 MOL1         0.0740
       7    C3      20.393317   19.688909   21.491583 C.3        1 MOL1        -0.1882
       8    H3      20.328036   18.739297   20.944369 H          1 MOL1         0.0742
       9    H4      21.400534   19.739014   21.927826 H          1 MOL1         0.0742
      10    C4      19.334417   19.728990   22.617721 C.3        1 MOL1        -0.1880
      11    H5      18.329570   19.625809   22.185720 H          1 MOL1         0.0742
      12    H6      19.365059   20.714902   23.101456 H          1 MOL1         0.0742
      13    C5      19.545860   18.645198   23.701349 C.3        1 MOL1        -0.1880
      14    H7      20.549108   18.750570   24.136460 H          1 MOL1         0.0742
      15    H8      18.833007   18.825555   24.517584 H          1 MOL1         0.0742
      16    C6      19.353911   17.203963   23.177625 C.3        1 MOL1        -0.1856
      17    H9      20.108531   16.975146   22.413720 H          1 MOL1         0.0742
      18    H10     18.370943   17.112675   22.695291 H          1 MOL1         0.0742
      19    C7      19.463651   16.169589   24.315932 C.3        1 MOL1        -0.2871
      20    H11     18.696749   16.344672   25.081807 H          1 MOL1         0.0754
      21    H12     20.448430   16.220355   24.798651 H          1 MOL1         0.0754
      22    H13     19.328456   15.151661   23.927841 H          1 MOL1         0.0754
@<TRIPOS>BOND
    1     1     2    1
    2     1     3    2
    3     1     4    1
    4     4     5    1
    5     4     6    1
    6     4     7    1
    7     7     8    1
    8     7     9    1
    9     7    10    1
   10    10    11    1
   11    10    12    1
   12    10    13    1
   13    13    14    1
   14    13    15    1
   15    13    16    1
   16    16    17    1
   17    16    18    1
   18    16    19    1
   19    19    20    1
   20    19    21    1
   21    19    22    1
@<TRIPOS>SUBSTRUCTURE
       1 MOL1            1 RESIDUE      1      MOL     
@<SCITEGIC>MOL_PROPERTY
VConf Rank
SciTegic.value.IntegerValue
967

@<SCITEGIC>MOL_PROPERTY
Conf_Id
SciTegic.value.IntegerValue
50

@<SCITEGIC>MOL_PROPERTY
Delta U+W
SciTegic.value.DoubleValue
-0.486

@<SCITEGIC>MOL_PROPERTY
U+W
SciTegic.value.DoubleValue
-53.646

@<SCITEGIC>MOL_PROPERTY
Grad RMS
SciTegic.value.DoubleValue
0.000000

@<SCITEGIC>MOL_PROPERTY
U
SciTegic.value.DoubleValue
7.026

@<SCITEGIC>MOL_PROPERTY
W
SciTegic.value.DoubleValue
-60.672

@<SCITEGIC>MOL_PROPERTY
W(PB)
SciTegic.value.DoubleValue
-62.964

@<SCITEGIC>MOL_PROPERTY
W(SA)
SciTegic.value.DoubleValue
2.292

@<SCITEGIC>MOL_PROPERTY
Valence
SciTegic.value.DoubleValue
7.637

@<SCITEGIC>MOL_PROPERTY
Coulomb
SciTegic.value.DoubleValue
-1.488

@<SCITEGIC>MOL_PROPERTY
VdW
SciTegic.value.DoubleValue
0.877

@<SCITEGIC>MOL_PROPERTY
VdW6
SciTegic.value.DoubleValue
-7.165

@<SCITEGIC>MOL_PROPERTY
VdW12
SciTegic.value.DoubleValue
8.043

@<SCITEGIC>MOL_PROPERTY
Bond
SciTegic.value.DoubleValue
0.134

@<SCITEGIC>MOL_PROPERTY
Angle
SciTegic.value.DoubleValue
2.513

@<SCITEGIC>MOL_PROPERTY
Pdih
SciTegic.value.DoubleValue
4.990

@<SCITEGIC>MOL_PROPERTY
Idih
SciTegic.value.DoubleValue
0.001

@<SCITEGIC>MOL_PROPERTY
Tether
SciTegic.value.DoubleValue
0.000

@<TRIPOS>MOLECULE
guest-s21_confgen4.mol2 : confsearch ligand conformer 968
          22          21           1
SMALL
USER_CHARGES
 
@<TRIPOS>ATOM
       1    C1      17.911844   20.989923   19.666604 C.2        1 MOL1         0.6145
       2    O1      18.355756   22.088441   19.397026 O.co2      1 MOL1        -0.6735
       3    O2      16.726597   20.756636   19.797835 O.co2      1 MOL1        -0.6735
       4    C2      18.897948   19.845422   19.871655 C.3        1 MOL1        -0.1985
       5    H1      19.757496   20.014291   19.211901 H          1 MOL1         0.0740
       6    H2      18.415161   18.916811   19.544169 H          1 MOL1         0.0740
       7    C3      19.368806   19.712960   21.341024 C.3        1 MOL1        -0.1882
       8    H3      19.841579   20.653314   21.656497 H          1 MOL1         0.0742
       9    H4      18.490355   19.564929   21.982802 H          1 MOL1         0.0742
      10    C4      20.363580   18.542863   21.520925 C.3        1 MOL1        -0.1880
      11    H5      21.196214   18.670721   20.815703 H          1 MOL1         0.0742
      12    H6      19.874057   17.595816   21.255486 H          1 MOL1         0.0742
      13    C5      20.944548   18.442234   22.951278 C.3        1 MOL1        -0.1880
      14    H7      21.727850   17.671942   22.955265 H          1 MOL1         0.0742
      15    H8      21.437625   19.387710   23.215630 H          1 MOL1         0.0742
      16    C6      19.888194   18.088344   24.022337 C.3        1 MOL1        -0.1856
      17    H9      19.358302   17.170854   23.731419 H          1 MOL1         0.0742
      18    H10     19.136131   18.885317   24.090119 H          1 MOL1         0.0742
      19    C7      20.533498   17.889172   25.408566 C.3        1 MOL1        -0.2871
      20    H11     21.047928   18.801902   25.736699 H          1 MOL1         0.0754
      21    H12     21.265667   17.071337   25.387775 H          1 MOL1         0.0754
      22    H13     19.770731   17.641816   26.158279 H          1 MOL1         0.0754
@<TRIPOS>BOND
    1     1     2    1
    2     1     3    2
    3     1     4    1
    4     4     5    1
    5     4     6    1
    6     4     7    1
    7     7     8    1
    8     7     9    1
    9     7    10    1
   10    10    11    1
   11    10    12    1
   12    10    13    1
   13    13    14    1
   14    13    15    1
   15    13    16    1
   16    16    17    1
   17    16    18    1
   18    16    19    1
   19    19    20    1
   20    19    21    1
   21    19    22    1
@<TRIPOS>SUBSTRUCTURE
       1 MOL1            1 RESIDUE      1      MOL     
@<SCITEGIC>MOL_PROPERTY
VConf Rank
SciTegic.value.IntegerValue
968

@<SCITEGIC>MOL_PROPERTY
Conf_Id
SciTegic.value.IntegerValue
51

@<SCITEGIC>MOL_PROPERTY
Delta U+W
SciTegic.value.DoubleValue
-0.517

@<SCITEGIC>MOL_PROPERTY
U+W
SciTegic.value.DoubleValue
-53.677

@<SCITEGIC>MOL_PROPERTY
Grad RMS
SciTegic.value.DoubleValue
0.000000

@<SCITEGIC>MOL_PROPERTY
U
SciTegic.value.DoubleValue
7.026

@<SCITEGIC>MOL_PROPERTY
W
SciTegic.value.DoubleValue
-60.703

@<SCITEGIC>MOL_PROPERTY
W(PB)
SciTegic.value.DoubleValue
-63.007

@<SCITEGIC>MOL_PROPERTY
W(SA)
SciTegic.value.DoubleValue
2.304

@<SCITEGIC>MOL_PROPERTY
Valence
SciTegic.value.DoubleValue
7.638

@<SCITEGIC>MOL_PROPERTY
Coulomb
SciTegic.value.DoubleValue
-1.488

@<SCITEGIC>MOL_PROPERTY
VdW
SciTegic.value.DoubleValue
0.877

@<SCITEGIC>MOL_PROPERTY
VdW6
SciTegic.value.DoubleValue
-7.165

@<SCITEGIC>MOL_PROPERTY
VdW12
SciTegic.value.DoubleValue
8.042

@<SCITEGIC>MOL_PROPERTY
Bond
SciTegic.value.DoubleValue
0.134

@<SCITEGIC>MOL_PROPERTY
Angle
SciTegic.value.DoubleValue
2.513

@<SCITEGIC>MOL_PROPERTY
Pdih
SciTegic.value.DoubleValue
4.990

@<SCITEGIC>MOL_PROPERTY
Idih
SciTegic.value.DoubleValue
0.001

@<SCITEGIC>MOL_PROPERTY
Tether
SciTegic.value.DoubleValue
0.000

@<TRIPOS>MOLECULE
guest-s21_confgen4.mol2 : confsearch ligand conformer 969
          22          21           1
SMALL
USER_CHARGES
 
@<TRIPOS>ATOM
       1    C1      18.813386   18.828722   25.623999 C.2        1 MOL1         0.6145
       2    O1      18.112439   17.866890   25.869870 O.co2      1 MOL1        -0.6735
       3    O2      19.864107   19.057234   26.190177 O.co2      1 MOL1        -0.6735
       4    C2      18.336680   19.812219   24.558813 C.3        1 MOL1        -0.1985
       5    H1      18.868776   20.761497   24.695382 H          1 MOL1         0.0740
       6    H2      17.275747   20.012879   24.749070 H          1 MOL1         0.0740
       7    C3      18.514850   19.302769   23.104953 C.3        1 MOL1        -0.1882
       8    H3      18.000404   18.338319   22.991664 H          1 MOL1         0.0742
       9    H4      18.023793   20.005589   22.418331 H          1 MOL1         0.0742
      10    C4      20.000004   19.153878   22.705284 C.3        1 MOL1        -0.1880
      11    H5      20.494271   18.438804   23.377427 H          1 MOL1         0.0742
      12    H6      20.512659   20.117175   22.832797 H          1 MOL1         0.0742
      13    C5      20.154054   18.676163   21.245315 C.3        1 MOL1        -0.1880
      14    H7      19.641179   17.712828   21.118620 H          1 MOL1         0.0742
      15    H8      19.663044   19.391131   20.570934 H          1 MOL1         0.0742
      16    C6      21.636941   18.526491   20.845701 C.3        1 MOL1        -0.1856
      17    H9      22.131016   17.810551   21.517133 H          1 MOL1         0.0742
      18    H10     22.152932   19.488715   20.969562 H          1 MOL1         0.0742
      19    C7      21.786820   18.048693   19.387414 C.3        1 MOL1        -0.2871
      20    H11     21.306342   17.072165   19.242726 H          1 MOL1         0.0754
      21    H12     22.846819   17.947741   19.120401 H          1 MOL1         0.0754
      22    H13     21.328369   18.762974   18.690979 H          1 MOL1         0.0754
@<TRIPOS>BOND
    1     1     2    1
    2     1     3    2
    3     1     4    1
    4     4     5    1
    5     4     6    1
    6     4     7    1
    7     7     8    1
    8     7     9    1
    9     7    10    1
   10    10    11    1
   11    10    12    1
   12    10    13    1
   13    13    14    1
   14    13    15    1
   15    13    16    1
   16    16    17    1
   17    16    18    1
   18    16    19    1
   19    19    20    1
   20    19    21    1
   21    19    22    1
@<TRIPOS>SUBSTRUCTURE
       1 MOL1            1 RESIDUE      1      MOL     
@<SCITEGIC>MOL_PROPERTY
VConf Rank
SciTegic.value.IntegerValue
969

@<SCITEGIC>MOL_PROPERTY
Conf_Id
SciTegic.value.IntegerValue
43

@<SCITEGIC>MOL_PROPERTY
Delta U+W
SciTegic.value.DoubleValue
-0.129

@<SCITEGIC>MOL_PROPERTY
U+W
SciTegic.value.DoubleValue
-53.289

@<SCITEGIC>MOL_PROPERTY
Grad RMS
SciTegic.value.DoubleValue
0.000000

@<SCITEGIC>MOL_PROPERTY
U
SciTegic.value.DoubleValue
7.937

@<SCITEGIC>MOL_PROPERTY
W
SciTegic.value.DoubleValue
-61.225

@<SCITEGIC>MOL_PROPERTY
W(PB)
SciTegic.value.DoubleValue
-63.523

@<SCITEGIC>MOL_PROPERTY
W(SA)
SciTegic.value.DoubleValue
2.297

@<SCITEGIC>MOL_PROPERTY
Valence
SciTegic.value.DoubleValue
7.358

@<SCITEGIC>MOL_PROPERTY
Coulomb
SciTegic.value.DoubleValue
-0.022

@<SCITEGIC>MOL_PROPERTY
VdW
SciTegic.value.DoubleValue
0.601

@<SCITEGIC>MOL_PROPERTY
VdW6
SciTegic.value.DoubleValue
-7.363

@<SCITEGIC>MOL_PROPERTY
VdW12
SciTegic.value.DoubleValue
7.964

@<SCITEGIC>MOL_PROPERTY
Bond
SciTegic.value.DoubleValue
0.121

@<SCITEGIC>MOL_PROPERTY
Angle
SciTegic.value.DoubleValue
2.425

@<SCITEGIC>MOL_PROPERTY
Pdih
SciTegic.value.DoubleValue
4.811

@<SCITEGIC>MOL_PROPERTY
Idih
SciTegic.value.DoubleValue
0.000

@<SCITEGIC>MOL_PROPERTY
Tether
SciTegic.value.DoubleValue
0.000

@<TRIPOS>MOLECULE
guest-s21_confgen4.mol2 : confsearch ligand conformer 970
          22          21           1
SMALL
USER_CHARGES
 
@<TRIPOS>ATOM
       1    C1      22.742624   20.710211   22.039262 C.2        1 MOL1         0.6145
       2    O1      23.327569   20.834171   23.097268 O.co2      1 MOL1        -0.6735
       3    O2      22.373291   21.648637   21.361219 O.co2      1 MOL1        -0.6735
       4    C2      22.474534   19.297765   21.527156 C.3        1 MOL1        -0.1985
       5    H1      23.401294   18.724266   21.646556 H          1 MOL1         0.0740
       6    H2      22.269052   19.348538   20.451004 H          1 MOL1         0.0740
       7    C3      21.317256   18.570287   22.259607 C.3        1 MOL1        -0.1882
       8    H3      21.286207   17.524168   21.926122 H          1 MOL1         0.0742
       9    H4      21.523934   18.552243   23.338778 H          1 MOL1         0.0742
      10    C4      19.943410   19.228420   22.000766 C.3        1 MOL1        -0.1880
      11    H5      19.747472   19.255885   20.920087 H          1 MOL1         0.0742
      12    H6      19.961175   20.270895   22.347661 H          1 MOL1         0.0742
      13    C5      18.802890   18.470151   22.713297 C.3        1 MOL1        -0.1880
      14    H7      18.781225   17.428069   22.365944 H          1 MOL1         0.0742
      15    H8      18.999530   18.443161   23.793905 H          1 MOL1         0.0742
      16    C6      17.430669   19.127269   22.455893 C.3        1 MOL1        -0.1856
      17    H9      17.229733   19.154543   21.375919 H          1 MOL1         0.0742
      18    H10     17.448002   20.169459   22.803806 H          1 MOL1         0.0742
      19    C7      16.294327   18.367734   23.169470 C.3        1 MOL1        -0.2871
      20    H11     16.233862   17.329705   22.817000 H          1 MOL1         0.0754
      21    H12     15.326550   18.848342   22.975796 H          1 MOL1         0.0754
      22    H13     16.453782   18.352317   24.255627 H          1 MOL1         0.0754
@<TRIPOS>BOND
    1     1     2    1
    2     1     3    2
    3     1     4    1
    4     4     5    1
    5     4     6    1
    6     4     7    1
    7     7     8    1
    8     7     9    1
    9     7    10    1
   10    10    11    1
   11    10    12    1
   12    10    13    1
   13    13    14    1
   14    13    15    1
   15    13    16    1
   16    16    17    1
   17    16    18    1
   18    16    19    1
   19    19    20    1
   20    19    21    1
   21    19    22    1
@<TRIPOS>SUBSTRUCTURE
       1 MOL1            1 RESIDUE      1      MOL     
@<SCITEGIC>MOL_PROPERTY
VConf Rank
SciTegic.value.IntegerValue
970

@<SCITEGIC>MOL_PROPERTY
Conf_Id
SciTegic.value.IntegerValue
44

@<SCITEGIC>MOL_PROPERTY
Delta U+W
SciTegic.value.DoubleValue
-0.155

@<SCITEGIC>MOL_PROPERTY
U+W
SciTegic.value.DoubleValue
-53.314

@<SCITEGIC>MOL_PROPERTY
Grad RMS
SciTegic.value.DoubleValue
0.000000

@<SCITEGIC>MOL_PROPERTY
U
SciTegic.value.DoubleValue
7.937

@<SCITEGIC>MOL_PROPERTY
W
SciTegic.value.DoubleValue
-61.252

@<SCITEGIC>MOL_PROPERTY
W(PB)
SciTegic.value.DoubleValue
-63.556

@<SCITEGIC>MOL_PROPERTY
W(SA)
SciTegic.value.DoubleValue
2.304

@<SCITEGIC>MOL_PROPERTY
Valence
SciTegic.value.DoubleValue
7.358

@<SCITEGIC>MOL_PROPERTY
Coulomb
SciTegic.value.DoubleValue
-0.021

@<SCITEGIC>MOL_PROPERTY
VdW
SciTegic.value.DoubleValue
0.600

@<SCITEGIC>MOL_PROPERTY
VdW6
SciTegic.value.DoubleValue
-7.363

@<SCITEGIC>MOL_PROPERTY
VdW12
SciTegic.value.DoubleValue
7.964

@<SCITEGIC>MOL_PROPERTY
Bond
SciTegic.value.DoubleValue
0.121

@<SCITEGIC>MOL_PROPERTY
Angle
SciTegic.value.DoubleValue
2.425

@<SCITEGIC>MOL_PROPERTY
Pdih
SciTegic.value.DoubleValue
4.811

@<SCITEGIC>MOL_PROPERTY
Idih
SciTegic.value.DoubleValue
0.001

@<SCITEGIC>MOL_PROPERTY
Tether
SciTegic.value.DoubleValue
0.000

@<TRIPOS>MOLECULE
guest-s21_confgen4.mol2 : confsearch ligand conformer 971
          22          21           1
SMALL
USER_CHARGES
 
@<TRIPOS>ATOM
       1    C1      21.235792   15.980906   21.295325 C.2        1 MOL1         0.6145
       2    O1      22.103822   16.165416   20.465021 O.co2      1 MOL1        -0.6735
       3    O2      20.344698   15.164726   21.166215 O.co2      1 MOL1        -0.6735
       4    C2      21.280147   16.806925   22.577914 C.3        1 MOL1        -0.1985
       5    H1      22.315174   16.794282   22.939286 H          1 MOL1         0.0740
       6    H2      20.671856   16.304515   23.339790 H          1 MOL1         0.0740
       7    C3      20.811758   18.274955   22.401488 C.3        1 MOL1        -0.1882
       8    H3      21.025460   18.821504   23.328732 H          1 MOL1         0.0742
       9    H4      21.402834   18.752498   21.607774 H          1 MOL1         0.0742
      10    C4      19.303964   18.381290   22.069132 C.3        1 MOL1        -0.1880
      11    H5      18.712836   17.941013   22.883703 H          1 MOL1         0.0742
      12    H6      19.089326   17.782730   21.173226 H          1 MOL1         0.0742
      13    C5      18.830375   19.831193   21.809672 C.3        1 MOL1        -0.1880
      14    H7      19.421927   20.271151   20.995166 H          1 MOL1         0.0742
      15    H8      17.790865   19.798885   21.455725 H          1 MOL1         0.0742
      16    C6      18.906108   20.738757   23.058278 C.3        1 MOL1        -0.1856
      17    H9      19.948980   20.850819   23.382429 H          1 MOL1         0.0742
      18    H10     18.359814   20.271977   23.889466 H          1 MOL1         0.0742
      19    C7      18.316017   22.135585   22.778273 C.3        1 MOL1        -0.2871
      20    H11     18.861738   22.636873   21.968160 H          1 MOL1         0.0754
      21    H12     18.380035   22.768847   23.672669 H          1 MOL1         0.0754
      22    H13     17.259532   22.065306   22.488001 H          1 MOL1         0.0754
@<TRIPOS>BOND
    1     1     2    1
    2     1     3    2
    3     1     4    1
    4     4     5    1
    5     4     6    1
    6     4     7    1
    7     7     8    1
    8     7     9    1
    9     7    10    1
   10    10    11    1
   11    10    12    1
   12    10    13    1
   13    13    14    1
   14    13    15    1
   15    13    16    1
   16    16    17    1
   17    16    18    1
   18    16    19    1
   19    19    20    1
   20    19    21    1
   21    19    22    1
@<TRIPOS>SUBSTRUCTURE
       1 MOL1            1 RESIDUE      1      MOL     
@<SCITEGIC>MOL_PROPERTY
VConf Rank
SciTegic.value.IntegerValue
971

@<SCITEGIC>MOL_PROPERTY
Conf_Id
SciTegic.value.IntegerValue
53

@<SCITEGIC>MOL_PROPERTY
Delta U+W
SciTegic.value.DoubleValue
0.723

@<SCITEGIC>MOL_PROPERTY
U+W
SciTegic.value.DoubleValue
-52.436

@<SCITEGIC>MOL_PROPERTY
Grad RMS
SciTegic.value.DoubleValue
0.000000

@<SCITEGIC>MOL_PROPERTY
U
SciTegic.value.DoubleValue
8.587

@<SCITEGIC>MOL_PROPERTY
W
SciTegic.value.DoubleValue
-61.022

@<SCITEGIC>MOL_PROPERTY
W(PB)
SciTegic.value.DoubleValue
-63.285

@<SCITEGIC>MOL_PROPERTY
W(SA)
SciTegic.value.DoubleValue
2.263

@<SCITEGIC>MOL_PROPERTY
Valence
SciTegic.value.DoubleValue
7.933

@<SCITEGIC>MOL_PROPERTY
Coulomb
SciTegic.value.DoubleValue
-0.124

@<SCITEGIC>MOL_PROPERTY
VdW
SciTegic.value.DoubleValue
0.778

@<SCITEGIC>MOL_PROPERTY
VdW6
SciTegic.value.DoubleValue
-7.981

@<SCITEGIC>MOL_PROPERTY
VdW12
SciTegic.value.DoubleValue
8.759

@<SCITEGIC>MOL_PROPERTY
Bond
SciTegic.value.DoubleValue
0.160

@<SCITEGIC>MOL_PROPERTY
Angle
SciTegic.value.DoubleValue
2.698

@<SCITEGIC>MOL_PROPERTY
Pdih
SciTegic.value.DoubleValue
5.074

@<SCITEGIC>MOL_PROPERTY
Idih
SciTegic.value.DoubleValue
0.001

@<SCITEGIC>MOL_PROPERTY
Tether
SciTegic.value.DoubleValue
0.000

@<TRIPOS>MOLECULE
guest-s21_confgen4.mol2 : confsearch ligand conformer 972
          22          21           1
SMALL
USER_CHARGES
 
@<TRIPOS>ATOM
       1    C1      20.769188   21.493316   24.317041 C.2        1 MOL1         0.6145
       2    O1      20.810793   22.517540   23.664506 O.co2      1 MOL1        -0.6735
       3    O2      20.989443   21.447192   25.511169 O.co2      1 MOL1        -0.6735
       4    C2      20.398574   20.198476   23.602874 C.3        1 MOL1        -0.1985
       5    H1      20.908432   19.371045   24.110498 H          1 MOL1         0.0740
       6    H2      20.796653   20.256833   22.583631 H          1 MOL1         0.0740
       7    C3      18.869849   19.947320   23.570360 C.3        1 MOL1        -0.1882
       8    H3      18.477666   20.030839   24.593413 H          1 MOL1         0.0742
       9    H4      18.385144   20.744165   22.989539 H          1 MOL1         0.0742
      10    C4      18.461393   18.566265   22.998943 C.3        1 MOL1        -0.1880
      11    H5      17.368023   18.488425   23.072633 H          1 MOL1         0.0742
      12    H6      18.860853   17.762529   23.632502 H          1 MOL1         0.0742
      13    C5      18.862876   18.334956   21.520087 C.3        1 MOL1        -0.1880
      14    H7      18.067412   17.757111   21.029856 H          1 MOL1         0.0742
      15    H8      18.914859   19.294971   20.988455 H          1 MOL1         0.0742
      16    C6      20.189764   17.557570   21.359484 C.3        1 MOL1        -0.1856
      17    H9      20.102249   16.576772   21.846897 H          1 MOL1         0.0742
      18    H10     21.009797   18.085025   21.861183 H          1 MOL1         0.0742
      19    C7      20.551013   17.356773   19.874051 C.3        1 MOL1        -0.2871
      20    H11     19.766354   16.794483   19.351105 H          1 MOL1         0.0754
      21    H12     21.490756   16.797826   19.776612 H          1 MOL1         0.0754
      22    H13     20.676899   18.322435   19.367091 H          1 MOL1         0.0754
@<TRIPOS>BOND
    1     1     2    1
    2     1     3    2
    3     1     4    1
    4     4     5    1
    5     4     6    1
    6     4     7    1
    7     7     8    1
    8     7     9    1
    9     7    10    1
   10    10    11    1
   11    10    12    1
   12    10    13    1
   13    13    14    1
   14    13    15    1
   15    13    16    1
   16    16    17    1
   17    16    18    1
   18    16    19    1
   19    19    20    1
   20    19    21    1
   21    19    22    1
@<TRIPOS>SUBSTRUCTURE
       1 MOL1            1 RESIDUE      1      MOL     
@<SCITEGIC>MOL_PROPERTY
VConf Rank
SciTegic.value.IntegerValue
972

@<SCITEGIC>MOL_PROPERTY
Conf_Id
SciTegic.value.IntegerValue
5

@<SCITEGIC>MOL_PROPERTY
Delta U+W
SciTegic.value.DoubleValue
2.167

@<SCITEGIC>MOL_PROPERTY
U+W
SciTegic.value.DoubleValue
-50.993

@<SCITEGIC>MOL_PROPERTY
Grad RMS
SciTegic.value.DoubleValue
0.000000

@<SCITEGIC>MOL_PROPERTY
U
SciTegic.value.DoubleValue
10.045

@<SCITEGIC>MOL_PROPERTY
W
SciTegic.value.DoubleValue
-61.037

@<SCITEGIC>MOL_PROPERTY
W(PB)
SciTegic.value.DoubleValue
-63.303

@<SCITEGIC>MOL_PROPERTY
W(SA)
SciTegic.value.DoubleValue
2.266

@<SCITEGIC>MOL_PROPERTY
Valence
SciTegic.value.DoubleValue
10.100

@<SCITEGIC>MOL_PROPERTY
Coulomb
SciTegic.value.DoubleValue
-0.883

@<SCITEGIC>MOL_PROPERTY
VdW
SciTegic.value.DoubleValue
0.828

@<SCITEGIC>MOL_PROPERTY
VdW6
SciTegic.value.DoubleValue
-8.177

@<SCITEGIC>MOL_PROPERTY
VdW12
SciTegic.value.DoubleValue
9.005

@<SCITEGIC>MOL_PROPERTY
Bond
SciTegic.value.DoubleValue
0.182

@<SCITEGIC>MOL_PROPERTY
Angle
SciTegic.value.DoubleValue
2.988

@<SCITEGIC>MOL_PROPERTY
Pdih
SciTegic.value.DoubleValue
6.930

@<SCITEGIC>MOL_PROPERTY
Idih
SciTegic.value.DoubleValue
0.001

@<SCITEGIC>MOL_PROPERTY
Tether
SciTegic.value.DoubleValue
0.000

@<TRIPOS>MOLECULE
guest-s21_confgen4.mol2 : confsearch ligand conformer 973
          22          21           1
SMALL
USER_CHARGES
 
@<TRIPOS>ATOM
       1    C1      21.900764   21.144491   20.918534 C.2        1 MOL1         0.6145
       2    O1      22.030210   22.094584   21.664950 O.co2      1 MOL1        -0.6735
       3    O2      22.383639   21.093611   19.804611 O.co2      1 MOL1        -0.6735
       4    C2      21.067790   19.960665   21.396774 C.3        1 MOL1        -0.1985
       5    H1      21.211032   19.870825   22.479429 H          1 MOL1         0.0740
       6    H2      21.469295   19.051722   20.933203 H          1 MOL1         0.0740
       7    C3      19.562119   20.112548   21.063568 C.3        1 MOL1        -0.1882
       8    H3      19.159258   20.982336   21.600622 H          1 MOL1         0.0742
       9    H4      19.459609   20.337989   19.993012 H          1 MOL1         0.0742
      10    C4      18.707091   18.861325   21.386121 C.3        1 MOL1        -0.1880
      11    H5      19.040804   18.009191   20.778291 H          1 MOL1         0.0742
      12    H6      17.678109   19.072311   21.064205 H          1 MOL1         0.0742
      13    C5      18.673043   18.471512   22.885653 C.3        1 MOL1        -0.1880
      14    H7      18.825922   19.361945   23.510730 H          1 MOL1         0.0742
      15    H8      17.667758   18.098924   23.125597 H          1 MOL1         0.0742
      16    C6      19.694115   17.371175   23.256366 C.3        1 MOL1        -0.1856
      17    H9      20.713088   17.689253   23.005596 H          1 MOL1         0.0742
      18    H10     19.492165   16.468003   22.664174 H          1 MOL1         0.0742
      19    C7      19.628042   17.020949   24.756469 C.3        1 MOL1        -0.2871
      20    H11     19.857843   17.898724   25.374580 H          1 MOL1         0.0754
      21    H12     20.353004   16.234171   25.002319 H          1 MOL1         0.0754
      22    H13     18.628769   16.659320   25.032170 H          1 MOL1         0.0754
@<TRIPOS>BOND
    1     1     2    1
    2     1     3    2
    3     1     4    1
    4     4     5    1
    5     4     6    1
    6     4     7    1
    7     7     8    1
    8     7     9    1
    9     7    10    1
   10    10    11    1
   11    10    12    1
   12    10    13    1
   13    13    14    1
   14    13    15    1
   15    13    16    1
   16    16    17    1
   17    16    18    1
   18    16    19    1
   19    19    20    1
   20    19    21    1
   21    19    22    1
@<TRIPOS>SUBSTRUCTURE
       1 MOL1            1 RESIDUE      1      MOL     
@<SCITEGIC>MOL_PROPERTY
VConf Rank
SciTegic.value.IntegerValue
973

@<SCITEGIC>MOL_PROPERTY
Conf_Id
SciTegic.value.IntegerValue
6

@<SCITEGIC>MOL_PROPERTY
Delta U+W
SciTegic.value.DoubleValue
2.118

@<SCITEGIC>MOL_PROPERTY
U+W
SciTegic.value.DoubleValue
-51.042

@<SCITEGIC>MOL_PROPERTY
Grad RMS
SciTegic.value.DoubleValue
0.000000

@<SCITEGIC>MOL_PROPERTY
U
SciTegic.value.DoubleValue
10.045

@<SCITEGIC>MOL_PROPERTY
W
SciTegic.value.DoubleValue
-61.086

@<SCITEGIC>MOL_PROPERTY
W(PB)
SciTegic.value.DoubleValue
-63.356

@<SCITEGIC>MOL_PROPERTY
W(SA)
SciTegic.value.DoubleValue
2.270

@<SCITEGIC>MOL_PROPERTY
Valence
SciTegic.value.DoubleValue
10.100

@<SCITEGIC>MOL_PROPERTY
Coulomb
SciTegic.value.DoubleValue
-0.883

@<SCITEGIC>MOL_PROPERTY
VdW
SciTegic.value.DoubleValue
0.828

@<SCITEGIC>MOL_PROPERTY
VdW6
SciTegic.value.DoubleValue
-8.177

@<SCITEGIC>MOL_PROPERTY
VdW12
SciTegic.value.DoubleValue
9.004

@<SCITEGIC>MOL_PROPERTY
Bond
SciTegic.value.DoubleValue
0.182

@<SCITEGIC>MOL_PROPERTY
Angle
SciTegic.value.DoubleValue
2.988

@<SCITEGIC>MOL_PROPERTY
Pdih
SciTegic.value.DoubleValue
6.930

@<SCITEGIC>MOL_PROPERTY
Idih
SciTegic.value.DoubleValue
0.001

@<SCITEGIC>MOL_PROPERTY
Tether
SciTegic.value.DoubleValue
0.000

@<TRIPOS>MOLECULE
guest-s21_confgen4.mol2 : confsearch ligand conformer 974
          22          21           1
SMALL
USER_CHARGES
 
@<TRIPOS>ATOM
       1    C1      20.161765   20.816331   20.688900 C.2        1 MOL1         0.6145
       2    O1      19.085105   21.210152   20.284915 O.co2      1 MOL1        -0.6735
       3    O2      20.909833   20.119138   20.032112 O.co2      1 MOL1        -0.6735
       4    C2      20.632658   21.278704   22.066553 C.3        1 MOL1        -0.1985
       5    H1      20.733784   22.368589   22.007763 H          1 MOL1         0.0740
       6    H2      21.637334   20.880034   22.252382 H          1 MOL1         0.0740
       7    C3      19.685054   20.921831   23.246285 C.3        1 MOL1        -0.1882
       8    H3      19.917510   21.594387   24.082978 H          1 MOL1         0.0742
       9    H4      18.643577   21.134944   22.967931 H          1 MOL1         0.0742
      10    C4      19.809822   19.466839   23.762369 C.3        1 MOL1        -0.1880
      11    H5      19.216039   19.378480   24.682472 H          1 MOL1         0.0742
      12    H6      20.851313   19.263420   24.046529 H          1 MOL1         0.0742
      13    C5      19.327655   18.397587   22.756029 C.3        1 MOL1        -0.1880
      14    H7      18.323665   18.657889   22.393685 H          1 MOL1         0.0742
      15    H8      19.990799   18.381976   21.881924 H          1 MOL1         0.0742
      16    C6      19.300369   16.990058   23.388535 C.3        1 MOL1        -0.1856
      17    H9      18.632517   16.987849   24.261074 H          1 MOL1         0.0742
      18    H10     20.303558   16.728994   23.753051 H          1 MOL1         0.0742
      19    C7      18.827872   15.923553   22.380204 C.3        1 MOL1        -0.2871
      20    H11     17.813466   16.143688   22.022588 H          1 MOL1         0.0754
      21    H12     18.815361   14.929384   22.845495 H          1 MOL1         0.0754
      22    H13     19.496430   15.882703   21.510225 H          1 MOL1         0.0754
@<TRIPOS>BOND
    1     1     2    1
    2     1     3    2
    3     1     4    1
    4     4     5    1
    5     4     6    1
    6     4     7    1
    7     7     8    1
    8     7     9    1
    9     7    10    1
   10    10    11    1
   11    10    12    1
   12    10    13    1
   13    13    14    1
   14    13    15    1
   15    13    16    1
   16    16    17    1
   17    16    18    1
   18    16    19    1
   19    19    20    1
   20    19    21    1
   21    19    22    1
@<TRIPOS>SUBSTRUCTURE
       1 MOL1            1 RESIDUE      1      MOL     
@<SCITEGIC>MOL_PROPERTY
VConf Rank
SciTegic.value.IntegerValue
974

@<SCITEGIC>MOL_PROPERTY
Conf_Id
SciTegic.value.IntegerValue
8

@<SCITEGIC>MOL_PROPERTY
Delta U+W
SciTegic.value.DoubleValue
1.886

@<SCITEGIC>MOL_PROPERTY
U+W
SciTegic.value.DoubleValue
-51.274

@<SCITEGIC>MOL_PROPERTY
Grad RMS
SciTegic.value.DoubleValue
0.000000

@<SCITEGIC>MOL_PROPERTY
U
SciTegic.value.DoubleValue
11.237

@<SCITEGIC>MOL_PROPERTY
W
SciTegic.value.DoubleValue
-62.510

@<SCITEGIC>MOL_PROPERTY
W(PB)
SciTegic.value.DoubleValue
-64.777

@<SCITEGIC>MOL_PROPERTY
W(SA)
SciTegic.value.DoubleValue
2.267

@<SCITEGIC>MOL_PROPERTY
Valence
SciTegic.value.DoubleValue
9.029

@<SCITEGIC>MOL_PROPERTY
Coulomb
SciTegic.value.DoubleValue
1.667

@<SCITEGIC>MOL_PROPERTY
VdW
SciTegic.value.DoubleValue
0.540

@<SCITEGIC>MOL_PROPERTY
VdW6
SciTegic.value.DoubleValue
-8.825

@<SCITEGIC>MOL_PROPERTY
VdW12
SciTegic.value.DoubleValue
9.365

@<SCITEGIC>MOL_PROPERTY
Bond
SciTegic.value.DoubleValue
0.186

@<SCITEGIC>MOL_PROPERTY
Angle
SciTegic.value.DoubleValue
3.195

@<SCITEGIC>MOL_PROPERTY
Pdih
SciTegic.value.DoubleValue
5.642

@<SCITEGIC>MOL_PROPERTY
Idih
SciTegic.value.DoubleValue
0.007

@<SCITEGIC>MOL_PROPERTY
Tether
SciTegic.value.DoubleValue
0.000

@<TRIPOS>MOLECULE
guest-s21_confgen4.mol2 : confsearch ligand conformer 975
          22          21           1
SMALL
USER_CHARGES
 
@<TRIPOS>ATOM
       1    C1      22.050267   20.512705   21.237627 C.2        1 MOL1         0.6145
       2    O1      21.421916   21.544650   21.368121 O.co2      1 MOL1        -0.6735
       3    O2      22.645969   20.212503   20.221592 O.co2      1 MOL1        -0.6735
       4    C2      22.121594   19.553916   22.422870 C.3        1 MOL1        -0.1985
       5    H1      21.786384   20.081835   23.322672 H          1 MOL1         0.0740
       6    H2      23.178857   19.312205   22.582543 H          1 MOL1         0.0740
       7    C3      21.319275   18.238436   22.225533 C.3        1 MOL1        -0.1882
       8    H3      21.735849   17.699804   21.363172 H          1 MOL1         0.0742
       9    H4      21.473099   17.588172   23.097213 H          1 MOL1         0.0742
      10    C4      19.799978   18.437301   21.999875 C.3        1 MOL1        -0.1880
      11    H5      19.359485   17.456737   21.779753 H          1 MOL1         0.0742
      12    H6      19.635430   19.057929   21.108433 H          1 MOL1         0.0742
      13    C5      19.074110   19.068594   23.213147 C.3        1 MOL1        -0.1880
      14    H7      19.252530   18.461455   24.110944 H          1 MOL1         0.0742
      15    H8      19.500333   20.059889   23.414643 H          1 MOL1         0.0742
      16    C6      17.552205   19.239668   22.997419 C.3        1 MOL1        -0.1856
      17    H9      17.370829   19.833766   22.091037 H          1 MOL1         0.0742
      18    H10     17.141972   19.819953   23.835366 H          1 MOL1         0.0742
      19    C7      16.790104   17.899797   22.903824 C.3        1 MOL1        -0.2871
      20    H11     17.078960   17.334704   22.009073 H          1 MOL1         0.0754
      21    H12     15.708288   18.077315   22.848500 H          1 MOL1         0.0754
      22    H13     16.985067   17.274494   23.784780 H          1 MOL1         0.0754
@<TRIPOS>BOND
    1     1     2    1
    2     1     3    2
    3     1     4    1
    4     4     5    1
    5     4     6    1
    6     4     7    1
    7     7     8    1
    8     7     9    1
    9     7    10    1
   10    10    11    1
   11    10    12    1
   12    10    13    1
   13    13    14    1
   14    13    15    1
   15    13    16    1
   16    16    17    1
   17    16    18    1
   18    16    19    1
   19    19    20    1
   20    19    21    1
   21    19    22    1
@<TRIPOS>SUBSTRUCTURE
       1 MOL1            1 RESIDUE      1      MOL     
@<SCITEGIC>MOL_PROPERTY
VConf Rank
SciTegic.value.IntegerValue
975

@<SCITEGIC>MOL_PROPERTY
Conf_Id
SciTegic.value.IntegerValue
93

@<SCITEGIC>MOL_PROPERTY
Delta U+W
SciTegic.value.DoubleValue
1.836

@<SCITEGIC>MOL_PROPERTY
U+W
SciTegic.value.DoubleValue
-51.323

@<SCITEGIC>MOL_PROPERTY
Grad RMS
SciTegic.value.DoubleValue
0.000000

@<SCITEGIC>MOL_PROPERTY
U
SciTegic.value.DoubleValue
10.427

@<SCITEGIC>MOL_PROPERTY
W
SciTegic.value.DoubleValue
-61.751

@<SCITEGIC>MOL_PROPERTY
W(PB)
SciTegic.value.DoubleValue
-63.980

@<SCITEGIC>MOL_PROPERTY
W(SA)
SciTegic.value.DoubleValue
2.230

@<SCITEGIC>MOL_PROPERTY
Valence
SciTegic.value.DoubleValue
8.446

@<SCITEGIC>MOL_PROPERTY
Coulomb
SciTegic.value.DoubleValue
1.306

@<SCITEGIC>MOL_PROPERTY
VdW
SciTegic.value.DoubleValue
0.676

@<SCITEGIC>MOL_PROPERTY
VdW6
SciTegic.value.DoubleValue
-8.928

@<SCITEGIC>MOL_PROPERTY
VdW12
SciTegic.value.DoubleValue
9.604

@<SCITEGIC>MOL_PROPERTY
Bond
SciTegic.value.DoubleValue
0.209

@<SCITEGIC>MOL_PROPERTY
Angle
SciTegic.value.DoubleValue
3.066

@<SCITEGIC>MOL_PROPERTY
Pdih
SciTegic.value.DoubleValue
5.170

@<SCITEGIC>MOL_PROPERTY
Idih
SciTegic.value.DoubleValue
0.001

@<SCITEGIC>MOL_PROPERTY
Tether
SciTegic.value.DoubleValue
0.000

@<TRIPOS>MOLECULE
guest-s21_confgen4.mol2 : confsearch ligand conformer 976
          22          21           1
SMALL
USER_CHARGES
 
@<TRIPOS>ATOM
       1    C1      19.259286   16.428487   23.899102 C.2        1 MOL1         0.6145
       2    O1      19.998021   15.465013   23.841691 O.co2      1 MOL1        -0.6735
       3    O2      18.110404   16.418834   23.503195 O.co2      1 MOL1        -0.6735
       4    C2      19.796539   17.709839   24.530496 C.3        1 MOL1        -0.1985
       5    H1      20.244454   17.435347   25.492655 H          1 MOL1         0.0740
       6    H2      18.952136   18.369362   24.760106 H          1 MOL1         0.0740
       7    C3      20.853615   18.449934   23.665626 C.3        1 MOL1        -0.1882
       8    H3      21.224633   19.323183   24.218901 H          1 MOL1         0.0742
       9    H4      21.717709   17.786126   23.524109 H          1 MOL1         0.0742
      10    C4      20.344954   18.905785   22.275591 C.3        1 MOL1        -0.1880
      11    H5      20.004486   18.033635   21.700821 H          1 MOL1         0.0742
      12    H6      21.196013   19.326037   21.725062 H          1 MOL1         0.0742
      13    C5      19.208670   19.955045   22.348779 C.3        1 MOL1        -0.1880
      14    H7      18.349718   19.522486   22.877957 H          1 MOL1         0.0742
      15    H8      19.538413   20.820355   22.939543 H          1 MOL1         0.0742
      16    C6      18.721817   20.430976   20.960091 C.3        1 MOL1        -0.1856
      17    H9      17.828416   21.055790   21.096540 H          1 MOL1         0.0742
      18    H10     18.405990   19.565412   20.361399 H          1 MOL1         0.0742
      19    C7      19.780033   21.244210   20.183149 C.3        1 MOL1        -0.2871
      20    H11     20.645255   20.625475   19.914993 H          1 MOL1         0.0754
      21    H12     20.135694   22.095666   20.777814 H          1 MOL1         0.0754
      22    H13     19.352926   21.637813   19.251723 H          1 MOL1         0.0754
@<TRIPOS>BOND
    1     1     2    1
    2     1     3    2
    3     1     4    1
    4     4     5    1
    5     4     6    1
    6     4     7    1
    7     7     8    1
    8     7     9    1
    9     7    10    1
   10    10    11    1
   11    10    12    1
   12    10    13    1
   13    13    14    1
   14    13    15    1
   15    13    16    1
   16    16    17    1
   17    16    18    1
   18    16    19    1
   19    19    20    1
   20    19    21    1
   21    19    22    1
@<TRIPOS>SUBSTRUCTURE
       1 MOL1            1 RESIDUE      1      MOL     
@<SCITEGIC>MOL_PROPERTY
VConf Rank
SciTegic.value.IntegerValue
976

@<SCITEGIC>MOL_PROPERTY
Conf_Id
SciTegic.value.IntegerValue
70

@<SCITEGIC>MOL_PROPERTY
Delta U+W
SciTegic.value.DoubleValue
1.803

@<SCITEGIC>MOL_PROPERTY
U+W
SciTegic.value.DoubleValue
-51.356

@<SCITEGIC>MOL_PROPERTY
Grad RMS
SciTegic.value.DoubleValue
0.000000

@<SCITEGIC>MOL_PROPERTY
U
SciTegic.value.DoubleValue
10.428

@<SCITEGIC>MOL_PROPERTY
W
SciTegic.value.DoubleValue
-61.784

@<SCITEGIC>MOL_PROPERTY
W(PB)
SciTegic.value.DoubleValue
-64.014

@<SCITEGIC>MOL_PROPERTY
W(SA)
SciTegic.value.DoubleValue
2.230

@<SCITEGIC>MOL_PROPERTY
Valence
SciTegic.value.DoubleValue
8.445

@<SCITEGIC>MOL_PROPERTY
Coulomb
SciTegic.value.DoubleValue
1.306

@<SCITEGIC>MOL_PROPERTY
VdW
SciTegic.value.DoubleValue
0.676

@<SCITEGIC>MOL_PROPERTY
VdW6
SciTegic.value.DoubleValue
-8.929

@<SCITEGIC>MOL_PROPERTY
VdW12
SciTegic.value.DoubleValue
9.605

@<SCITEGIC>MOL_PROPERTY
Bond
SciTegic.value.DoubleValue
0.209

@<SCITEGIC>MOL_PROPERTY
Angle
SciTegic.value.DoubleValue
3.066

@<SCITEGIC>MOL_PROPERTY
Pdih
SciTegic.value.DoubleValue
5.170

@<SCITEGIC>MOL_PROPERTY
Idih
SciTegic.value.DoubleValue
0.001

@<SCITEGIC>MOL_PROPERTY
Tether
SciTegic.value.DoubleValue
0.000

@<TRIPOS>MOLECULE
guest-s21_confgen4.mol2 : confsearch ligand conformer 977
          22          21           1
SMALL
USER_CHARGES
 
@<TRIPOS>ATOM
       1    C1      19.907478   16.181053   24.107646 C.2        1 MOL1         0.6145
       2    O1      20.756493   15.546571   23.513071 O.co2      1 MOL1        -0.6735
       3    O2      18.782032   15.770864   24.312571 O.co2      1 MOL1        -0.6735
       4    C2      20.283855   17.559474   24.643735 C.3        1 MOL1        -0.1985
       5    H1      21.266439   17.468943   25.121618 H          1 MOL1         0.0740
       6    H2      19.572188   17.835112   25.431386 H          1 MOL1         0.0740
       7    C3      20.336205   18.664788   23.557216 C.3        1 MOL1        -0.1882
       8    H3      20.738720   19.584368   24.002882 H          1 MOL1         0.0742
       9    H4      21.039292   18.357954   22.771626 H          1 MOL1         0.0742
      10    C4      18.945723   18.959714   22.945545 C.3        1 MOL1        -0.1880
      11    H5      18.238132   19.178600   23.756868 H          1 MOL1         0.0742
      12    H6      18.564414   18.063900   22.436207 H          1 MOL1         0.0742
      13    C5      18.946726   20.151915   21.959551 C.3        1 MOL1        -0.1880
      14    H7      17.908325   20.366648   21.672318 H          1 MOL1         0.0742
      15    H8      19.320281   21.050828   22.468743 H          1 MOL1         0.0742
      16    C6      19.777108   19.893447   20.682120 C.3        1 MOL1        -0.1856
      17    H9      19.438156   18.965373   20.201435 H          1 MOL1         0.0742
      18    H10     20.834854   19.752721   20.940438 H          1 MOL1         0.0742
      19    C7      19.656044   21.061680   19.682966 C.3        1 MOL1        -0.2871
      20    H11     18.613163   21.206786   19.372008 H          1 MOL1         0.0754
      21    H12     20.253367   20.864550   18.783296 H          1 MOL1         0.0754
      22    H13     20.014454   21.998509   20.129358 H          1 MOL1         0.0754
@<TRIPOS>BOND
    1     1     2    1
    2     1     3    2
    3     1     4    1
    4     4     5    1
    5     4     6    1
    6     4     7    1
    7     7     8    1
    8     7     9    1
    9     7    10    1
   10    10    11    1
   11    10    12    1
   12    10    13    1
   13    13    14    1
   14    13    15    1
   15    13    16    1
   16    16    17    1
   17    16    18    1
   18    16    19    1
   19    19    20    1
   20    19    21    1
   21    19    22    1
@<TRIPOS>SUBSTRUCTURE
       1 MOL1            1 RESIDUE      1      MOL     
@<SCITEGIC>MOL_PROPERTY
VConf Rank
SciTegic.value.IntegerValue
977

@<SCITEGIC>MOL_PROPERTY
Conf_Id
SciTegic.value.IntegerValue
85

@<SCITEGIC>MOL_PROPERTY
Delta U+W
SciTegic.value.DoubleValue
0.707

@<SCITEGIC>MOL_PROPERTY
U+W
SciTegic.value.DoubleValue
-52.452

@<SCITEGIC>MOL_PROPERTY
Grad RMS
SciTegic.value.DoubleValue
0.000000

@<SCITEGIC>MOL_PROPERTY
U
SciTegic.value.DoubleValue
8.925

@<SCITEGIC>MOL_PROPERTY
W
SciTegic.value.DoubleValue
-61.378

@<SCITEGIC>MOL_PROPERTY
W(PB)
SciTegic.value.DoubleValue
-63.661

@<SCITEGIC>MOL_PROPERTY
W(SA)
SciTegic.value.DoubleValue
2.283

@<SCITEGIC>MOL_PROPERTY
Valence
SciTegic.value.DoubleValue
7.881

@<SCITEGIC>MOL_PROPERTY
Coulomb
SciTegic.value.DoubleValue
0.349

@<SCITEGIC>MOL_PROPERTY
VdW
SciTegic.value.DoubleValue
0.695

@<SCITEGIC>MOL_PROPERTY
VdW6
SciTegic.value.DoubleValue
-8.049

@<SCITEGIC>MOL_PROPERTY
VdW12
SciTegic.value.DoubleValue
8.743

@<SCITEGIC>MOL_PROPERTY
Bond
SciTegic.value.DoubleValue
0.156

@<SCITEGIC>MOL_PROPERTY
Angle
SciTegic.value.DoubleValue
2.660

@<SCITEGIC>MOL_PROPERTY
Pdih
SciTegic.value.DoubleValue
5.064

@<SCITEGIC>MOL_PROPERTY
Idih
SciTegic.value.DoubleValue
0.001

@<SCITEGIC>MOL_PROPERTY
Tether
SciTegic.value.DoubleValue
0.000

@<TRIPOS>MOLECULE
guest-s21_confgen4.mol2 : confsearch ligand conformer 978
          22          21           1
SMALL
USER_CHARGES
 
@<TRIPOS>ATOM
       1    C1      21.015646   15.912193   21.378417 C.2        1 MOL1         0.6145
       2    O1      21.203052   15.868220   20.178465 O.co2      1 MOL1        -0.6735
       3    O2      21.821009   15.518986   22.199242 O.co2      1 MOL1        -0.6735
       4    C2      19.687702   16.469825   21.883397 C.3        1 MOL1        -0.1985
       5    H1      19.313200   15.779316   22.648208 H          1 MOL1         0.0740
       6    H2      18.964122   16.453561   21.059369 H          1 MOL1         0.0740
       7    C3      19.787002   17.897820   22.480606 C.3        1 MOL1        -0.1882
       8    H3      18.827217   18.142236   22.952813 H          1 MOL1         0.0742
       9    H4      20.548586   17.910265   23.272511 H          1 MOL1         0.0742
      10    C4      20.118982   18.967159   21.414124 C.3        1 MOL1        -0.1880
      11    H5      19.309236   19.006805   20.672882 H          1 MOL1         0.0742
      12    H6      21.021152   18.662451   20.866325 H          1 MOL1         0.0742
      13    C5      20.361206   20.385370   21.989041 C.3        1 MOL1        -0.1880
      14    H7      21.229500   20.375489   22.662016 H          1 MOL1         0.0742
      15    H8      20.641556   21.037496   21.150588 H          1 MOL1         0.0742
      16    C6      19.137696   21.015172   22.700571 C.3        1 MOL1        -0.1856
      17    H9      18.204736   20.609785   22.285290 H          1 MOL1         0.0742
      18    H10     19.123778   22.092902   22.487021 H          1 MOL1         0.0742
      19    C7      19.165251   20.833421   24.234598 C.3        1 MOL1        -0.2871
      20    H11     19.165191   19.775579   24.520734 H          1 MOL1         0.0754
      21    H12     18.286149   21.304649   24.692793 H          1 MOL1         0.0754
      22    H13     20.059753   21.300645   24.666634 H          1 MOL1         0.0754
@<TRIPOS>BOND
    1     1     2    1
    2     1     3    2
    3     1     4    1
    4     4     5    1
    5     4     6    1
    6     4     7    1
    7     7     8    1
    8     7     9    1
    9     7    10    1
   10    10    11    1
   11    10    12    1
   12    10    13    1
   13    13    14    1
   14    13    15    1
   15    13    16    1
   16    16    17    1
   17    16    18    1
   18    16    19    1
   19    19    20    1
   20    19    21    1
   21    19    22    1
@<TRIPOS>SUBSTRUCTURE
       1 MOL1            1 RESIDUE      1      MOL     
@<SCITEGIC>MOL_PROPERTY
VConf Rank
SciTegic.value.IntegerValue
978

@<SCITEGIC>MOL_PROPERTY
Conf_Id
SciTegic.value.IntegerValue
82

@<SCITEGIC>MOL_PROPERTY
Delta U+W
SciTegic.value.DoubleValue
3.438

@<SCITEGIC>MOL_PROPERTY
U+W
SciTegic.value.DoubleValue
-49.721

@<SCITEGIC>MOL_PROPERTY
Grad RMS
SciTegic.value.DoubleValue
0.000000

@<SCITEGIC>MOL_PROPERTY
U
SciTegic.value.DoubleValue
11.773

@<SCITEGIC>MOL_PROPERTY
W
SciTegic.value.DoubleValue
-61.495

@<SCITEGIC>MOL_PROPERTY
W(PB)
SciTegic.value.DoubleValue
-63.749

@<SCITEGIC>MOL_PROPERTY
W(SA)
SciTegic.value.DoubleValue
2.254

@<SCITEGIC>MOL_PROPERTY
Valence
SciTegic.value.DoubleValue
10.419

@<SCITEGIC>MOL_PROPERTY
Coulomb
SciTegic.value.DoubleValue
0.565

@<SCITEGIC>MOL_PROPERTY
VdW
SciTegic.value.DoubleValue
0.789

@<SCITEGIC>MOL_PROPERTY
VdW6
SciTegic.value.DoubleValue
-8.847

@<SCITEGIC>MOL_PROPERTY
VdW12
SciTegic.value.DoubleValue
9.636

@<SCITEGIC>MOL_PROPERTY
Bond
SciTegic.value.DoubleValue
0.200

@<SCITEGIC>MOL_PROPERTY
Angle
SciTegic.value.DoubleValue
3.187

@<SCITEGIC>MOL_PROPERTY
Pdih
SciTegic.value.DoubleValue
7.032

@<SCITEGIC>MOL_PROPERTY
Idih
SciTegic.value.DoubleValue
0.001

@<SCITEGIC>MOL_PROPERTY
Tether
SciTegic.value.DoubleValue
0.000

@<TRIPOS>MOLECULE
guest-s21_confgen4.mol2 : confsearch ligand conformer 979
          22          21           1
SMALL
USER_CHARGES
 
@<TRIPOS>ATOM
       1    C1      18.717069   19.414117   19.313980 C.2        1 MOL1         0.6145
       2    O1      18.821859   20.596989   19.055509 O.co2      1 MOL1        -0.6735
       3    O2      19.022084   18.527645   18.540628 O.co2      1 MOL1        -0.6735
       4    C2      18.149582   19.022864   20.675698 C.3        1 MOL1        -0.1985
       5    H1      17.802564   17.983656   20.625882 H          1 MOL1         0.0740
       6    H2      17.264125   19.644995   20.851514 H          1 MOL1         0.0740
       7    C3      19.146288   19.198738   21.851002 C.3        1 MOL1        -0.1882
       8    H3      19.521473   20.231419   21.860157 H          1 MOL1         0.0742
       9    H4      18.602049   19.045361   22.791313 H          1 MOL1         0.0742
      10    C4      20.331808   18.208554   21.779180 C.3        1 MOL1        -0.1880
      11    H5      20.807363   18.286123   20.791926 H          1 MOL1         0.0742
      12    H6      19.953443   17.180215   21.857030 H          1 MOL1         0.0742
      13    C5      21.420382   18.440093   22.857105 C.3        1 MOL1        -0.1880
      14    H7      22.228411   17.719816   22.669604 H          1 MOL1         0.0742
      15    H8      21.871370   19.433673   22.729295 H          1 MOL1         0.0742
      16    C6      20.938169   18.253260   24.317400 C.3        1 MOL1        -0.1856
      17    H9      21.748889   17.792536   24.898577 H          1 MOL1         0.0742
      18    H10     20.097221   17.547081   24.353854 H          1 MOL1         0.0742
      19    C7      20.553111   19.581548   25.006172 C.3        1 MOL1        -0.2871
      20    H11     21.410418   20.266386   25.039465 H          1 MOL1         0.0754
      21    H12     20.229582   19.398652   26.038982 H          1 MOL1         0.0754
      22    H13     19.734710   20.090159   24.484216 H          1 MOL1         0.0754
@<TRIPOS>BOND
    1     1     2    1
    2     1     3    2
    3     1     4    1
    4     4     5    1
    5     4     6    1
    6     4     7    1
    7     7     8    1
    8     7     9    1
    9     7    10    1
   10    10    11    1
   11    10    12    1
   12    10    13    1
   13    13    14    1
   14    13    15    1
   15    13    16    1
   16    16    17    1
   17    16    18    1
   18    16    19    1
   19    19    20    1
   20    19    21    1
   21    19    22    1
@<TRIPOS>SUBSTRUCTURE
       1 MOL1            1 RESIDUE      1      MOL     
@<SCITEGIC>MOL_PROPERTY
VConf Rank
SciTegic.value.IntegerValue
979

@<SCITEGIC>MOL_PROPERTY
Conf_Id
SciTegic.value.IntegerValue
94

@<SCITEGIC>MOL_PROPERTY
Delta U+W
SciTegic.value.DoubleValue
3.471

@<SCITEGIC>MOL_PROPERTY
U+W
SciTegic.value.DoubleValue
-49.688

@<SCITEGIC>MOL_PROPERTY
Grad RMS
SciTegic.value.DoubleValue
0.000000

@<SCITEGIC>MOL_PROPERTY
U
SciTegic.value.DoubleValue
11.773

@<SCITEGIC>MOL_PROPERTY
W
SciTegic.value.DoubleValue
-61.461

@<SCITEGIC>MOL_PROPERTY
W(PB)
SciTegic.value.DoubleValue
-63.710

@<SCITEGIC>MOL_PROPERTY
W(SA)
SciTegic.value.DoubleValue
2.248

@<SCITEGIC>MOL_PROPERTY
Valence
SciTegic.value.DoubleValue
10.419

@<SCITEGIC>MOL_PROPERTY
Coulomb
SciTegic.value.DoubleValue
0.566

@<SCITEGIC>MOL_PROPERTY
VdW
SciTegic.value.DoubleValue
0.789

@<SCITEGIC>MOL_PROPERTY
VdW6
SciTegic.value.DoubleValue
-8.847

@<SCITEGIC>MOL_PROPERTY
VdW12
SciTegic.value.DoubleValue
9.636

@<SCITEGIC>MOL_PROPERTY
Bond
SciTegic.value.DoubleValue
0.200

@<SCITEGIC>MOL_PROPERTY
Angle
SciTegic.value.DoubleValue
3.187

@<SCITEGIC>MOL_PROPERTY
Pdih
SciTegic.value.DoubleValue
7.032

@<SCITEGIC>MOL_PROPERTY
Idih
SciTegic.value.DoubleValue
0.001

@<SCITEGIC>MOL_PROPERTY
Tether
SciTegic.value.DoubleValue
0.000

@<TRIPOS>MOLECULE
guest-s21_confgen4.mol2 : confsearch ligand conformer 980
          22          21           1
SMALL
USER_CHARGES
 
@<TRIPOS>ATOM
       1    C1      21.706562   17.128449   24.279774 C.2        1 MOL1         0.6145
       2    O1      22.891839   16.861776   24.253248 O.co2      1 MOL1        -0.6735
       3    O2      20.856081   16.370977   24.703440 O.co2      1 MOL1        -0.6735
       4    C2      21.260527   18.480018   23.733655 C.3        1 MOL1        -0.1985
       5    H1      22.056878   19.207375   23.931161 H          1 MOL1         0.0740
       6    H2      20.380641   18.796907   24.304983 H          1 MOL1         0.0740
       7    C3      20.938428   18.437995   22.217429 C.3        1 MOL1        -0.1882
       8    H3      21.811041   18.039144   21.682112 H          1 MOL1         0.0742
       9    H4      20.120129   17.728816   22.035010 H          1 MOL1         0.0742
      10    C4      20.584744   19.823904   21.621962 C.3        1 MOL1        -0.1880
      11    H5      20.423369   19.715382   20.541381 H          1 MOL1         0.0742
      12    H6      21.454018   20.487093   21.727261 H          1 MOL1         0.0742
      13    C5      19.351749   20.520033   22.256229 C.3        1 MOL1        -0.1880
      14    H7      19.576037   20.776795   23.299789 H          1 MOL1         0.0742
      15    H8      19.188902   21.477936   21.743933 H          1 MOL1         0.0742
      16    C6      18.037843   19.701719   22.212165 C.3        1 MOL1        -0.1856
      17    H9      17.247913   20.280412   22.710194 H          1 MOL1         0.0742
      18    H10     18.148853   18.776500   22.793240 H          1 MOL1         0.0742
      19    C7      17.577300   19.364381   20.777624 C.3        1 MOL1        -0.2871
      20    H11     17.475526   20.275181   20.173439 H          1 MOL1         0.0754
      21    H12     16.603109   18.859037   20.795588 H          1 MOL1         0.0754
      22    H13     18.289676   18.696537   20.277162 H          1 MOL1         0.0754
@<TRIPOS>BOND
    1     1     2    1
    2     1     3    2
    3     1     4    1
    4     4     5    1
    5     4     6    1
    6     4     7    1
    7     7     8    1
    8     7     9    1
    9     7    10    1
   10    10    11    1
   11    10    12    1
   12    10    13    1
   13    13    14    1
   14    13    15    1
   15    13    16    1
   16    16    17    1
   17    16    18    1
   18    16    19    1
   19    19    20    1
   20    19    21    1
   21    19    22    1
@<TRIPOS>SUBSTRUCTURE
       1 MOL1            1 RESIDUE      1      MOL     
@<SCITEGIC>MOL_PROPERTY
VConf Rank
SciTegic.value.IntegerValue
980

@<SCITEGIC>MOL_PROPERTY
Conf_Id
SciTegic.value.IntegerValue
56

@<SCITEGIC>MOL_PROPERTY
Delta U+W
SciTegic.value.DoubleValue
0.853

@<SCITEGIC>MOL_PROPERTY
U+W
SciTegic.value.DoubleValue
-52.307

@<SCITEGIC>MOL_PROPERTY
Grad RMS
SciTegic.value.DoubleValue
0.000000

@<SCITEGIC>MOL_PROPERTY
U
SciTegic.value.DoubleValue
8.874

@<SCITEGIC>MOL_PROPERTY
W
SciTegic.value.DoubleValue
-61.181

@<SCITEGIC>MOL_PROPERTY
W(PB)
SciTegic.value.DoubleValue
-63.413

@<SCITEGIC>MOL_PROPERTY
W(SA)
SciTegic.value.DoubleValue
2.232

@<SCITEGIC>MOL_PROPERTY
Valence
SciTegic.value.DoubleValue
8.479

@<SCITEGIC>MOL_PROPERTY
Coulomb
SciTegic.value.DoubleValue
-0.357

@<SCITEGIC>MOL_PROPERTY
VdW
SciTegic.value.DoubleValue
0.753

@<SCITEGIC>MOL_PROPERTY
VdW6
SciTegic.value.DoubleValue
-9.081

@<SCITEGIC>MOL_PROPERTY
VdW12
SciTegic.value.DoubleValue
9.833

@<SCITEGIC>MOL_PROPERTY
Bond
SciTegic.value.DoubleValue
0.221

@<SCITEGIC>MOL_PROPERTY
Angle
SciTegic.value.DoubleValue
3.208

@<SCITEGIC>MOL_PROPERTY
Pdih
SciTegic.value.DoubleValue
5.050

@<SCITEGIC>MOL_PROPERTY
Idih
SciTegic.value.DoubleValue
0.000

@<SCITEGIC>MOL_PROPERTY
Tether
SciTegic.value.DoubleValue
0.000

@<TRIPOS>MOLECULE
guest-s21_confgen4.mol2 : confsearch ligand conformer 981
          22          21           1
SMALL
USER_CHARGES
 
@<TRIPOS>ATOM
       1    C1      20.123877   16.261627   25.177224 C.2        1 MOL1         0.6145
       2    O1      20.821595   15.508914   24.525294 O.co2      1 MOL1        -0.6735
       3    O2      19.787265   16.030264   26.321377 O.co2      1 MOL1        -0.6735
       4    C2      19.630601   17.569076   24.555304 C.3        1 MOL1        -0.1985
       5    H1      19.976577   18.387573   25.197435 H          1 MOL1         0.0740
       6    H2      18.535444   17.562462   24.605846 H          1 MOL1         0.0740
       7    C3      20.086578   17.820840   23.093419 C.3        1 MOL1        -0.1882
       8    H3      21.184529   17.820021   23.048803 H          1 MOL1         0.0742
       9    H4      19.741938   16.994267   22.456637 H          1 MOL1         0.0742
      10    C4      19.545370   19.159264   22.545486 C.3        1 MOL1        -0.1880
      11    H5      19.891196   19.984036   23.183675 H          1 MOL1         0.0742
      12    H6      18.447629   19.157778   22.591230 H          1 MOL1         0.0742
      13    C5      20.000021   19.407669   21.091218 C.3        1 MOL1        -0.1880
      14    H7      21.097738   19.409185   21.044955 H          1 MOL1         0.0742
      15    H8      19.654382   18.583135   20.452623 H          1 MOL1         0.0742
      16    C6      19.459596   20.745035   20.543045 C.3        1 MOL1        -0.1856
      17    H9      19.805037   21.572512   21.178205 H          1 MOL1         0.0742
      18    H10     18.361581   20.746448   20.585917 H          1 MOL1         0.0742
      19    C7      19.915774   20.989306   19.090609 C.3        1 MOL1        -0.2871
      20    H11     21.011080   21.024114   19.023509 H          1 MOL1         0.0754
      21    H12     19.522845   21.943842   18.717032 H          1 MOL1         0.0754
      22    H13     19.556755   20.191908   18.426779 H          1 MOL1         0.0754
@<TRIPOS>BOND
    1     1     2    1
    2     1     3    2
    3     1     4    1
    4     4     5    1
    5     4     6    1
    6     4     7    1
    7     7     8    1
    8     7     9    1
    9     7    10    1
   10    10    11    1
   11    10    12    1
   12    10    13    1
   13    13    14    1
   14    13    15    1
   15    13    16    1
   16    16    17    1
   17    16    18    1
   18    16    19    1
   19    19    20    1
   20    19    21    1
   21    19    22    1
@<TRIPOS>SUBSTRUCTURE
       1 MOL1            1 RESIDUE      1      MOL     
@<SCITEGIC>MOL_PROPERTY
VConf Rank
SciTegic.value.IntegerValue
981

@<SCITEGIC>MOL_PROPERTY
Conf_Id
SciTegic.value.IntegerValue
0

@<SCITEGIC>MOL_PROPERTY
Delta U+W
SciTegic.value.DoubleValue
0.000

@<SCITEGIC>MOL_PROPERTY
U+W
SciTegic.value.DoubleValue
-53.159

@<SCITEGIC>MOL_PROPERTY
Grad RMS
SciTegic.value.DoubleValue
0.000000

@<SCITEGIC>MOL_PROPERTY
U
SciTegic.value.DoubleValue
6.763

@<SCITEGIC>MOL_PROPERTY
W
SciTegic.value.DoubleValue
-59.922

@<SCITEGIC>MOL_PROPERTY
W(PB)
SciTegic.value.DoubleValue
-62.256

@<SCITEGIC>MOL_PROPERTY
W(SA)
SciTegic.value.DoubleValue
2.334

@<SCITEGIC>MOL_PROPERTY
Valence
SciTegic.value.DoubleValue
7.600

@<SCITEGIC>MOL_PROPERTY
Coulomb
SciTegic.value.DoubleValue
-2.139

@<SCITEGIC>MOL_PROPERTY
VdW
SciTegic.value.DoubleValue
1.302

@<SCITEGIC>MOL_PROPERTY
VdW6
SciTegic.value.DoubleValue
-6.786

@<SCITEGIC>MOL_PROPERTY
VdW12
SciTegic.value.DoubleValue
8.088

@<SCITEGIC>MOL_PROPERTY
Bond
SciTegic.value.DoubleValue
0.134

@<SCITEGIC>MOL_PROPERTY
Angle
SciTegic.value.DoubleValue
2.720

@<SCITEGIC>MOL_PROPERTY
Pdih
SciTegic.value.DoubleValue
4.746

@<SCITEGIC>MOL_PROPERTY
Idih
SciTegic.value.DoubleValue
0.000

@<SCITEGIC>MOL_PROPERTY
Tether
SciTegic.value.DoubleValue
0.000

@<TRIPOS>MOLECULE
guest-s21_confgen4.mol2 : confsearch ligand conformer 982
          22          21           1
SMALL
USER_CHARGES
 
@<TRIPOS>ATOM
       1    C1      15.823921   19.324368   22.686921 C.2        1 MOL1         0.6145
       2    O1      15.470017   20.393943   23.142105 O.co2      1 MOL1        -0.6735
       3    O2      15.256746   18.274510   22.916144 O.co2      1 MOL1        -0.6735
       4    C2      17.061374   19.294731   21.796953 C.3        1 MOL1        -0.1985
       5    H1      17.106802   20.241227   21.244915 H          1 MOL1         0.0740
       6    H2      16.930838   18.494604   21.058429 H          1 MOL1         0.0740
       7    C3      18.370967   19.077655   22.594384 C.3        1 MOL1        -0.1882
       8    H3      18.480177   19.879363   23.337963 H          1 MOL1         0.0742
       9    H4      18.304219   18.132794   23.151481 H          1 MOL1         0.0742
      10    C4      19.608405   19.051542   21.671377 C.3        1 MOL1        -0.1880
      11    H5      19.671477   19.996921   21.115092 H          1 MOL1         0.0742
      12    H6      19.495455   18.249923   20.928529 H          1 MOL1         0.0742
      13    C5      20.912304   18.834982   22.469026 C.3        1 MOL1        -0.1880
      14    H7      21.025615   19.636403   23.212000 H          1 MOL1         0.0742
      15    H8      20.849626   17.889694   23.025470 H          1 MOL1         0.0742
      16    C6      22.149507   18.808769   21.547229 C.3        1 MOL1        -0.1856
      17    H9      22.216737   19.753653   20.990316 H          1 MOL1         0.0742
      18    H10     22.040745   18.006949   20.803769 H          1 MOL1         0.0742
      19    C7      23.449507   18.592318   22.347534 C.3        1 MOL1        -0.2871
      20    H11     23.422545   17.638174   22.890019 H          1 MOL1         0.0754
      21    H12     23.599766   19.397988   23.078099 H          1 MOL1         0.0754
      22    H13     24.318529   18.576470   21.676980 H          1 MOL1         0.0754
@<TRIPOS>BOND
    1     1     2    1
    2     1     3    2
    3     1     4    1
    4     4     5    1
    5     4     6    1
    6     4     7    1
    7     7     8    1
    8     7     9    1
    9     7    10    1
   10    10    11    1
   11    10    12    1
   12    10    13    1
   13    13    14    1
   14    13    15    1
   15    13    16    1
   16    16    17    1
   17    16    18    1
   18    16    19    1
   19    19    20    1
   20    19    21    1
   21    19    22    1
@<TRIPOS>SUBSTRUCTURE
       1 MOL1            1 RESIDUE      1      MOL     
@<SCITEGIC>MOL_PROPERTY
VConf Rank
SciTegic.value.IntegerValue
982

@<SCITEGIC>MOL_PROPERTY
Conf_Id
SciTegic.value.IntegerValue
10

@<SCITEGIC>MOL_PROPERTY
Delta U+W
SciTegic.value.DoubleValue
-1.291

@<SCITEGIC>MOL_PROPERTY
U+W
SciTegic.value.DoubleValue
-54.451

@<SCITEGIC>MOL_PROPERTY
Grad RMS
SciTegic.value.DoubleValue
0.000000

@<SCITEGIC>MOL_PROPERTY
U
SciTegic.value.DoubleValue
5.779

@<SCITEGIC>MOL_PROPERTY
W
SciTegic.value.DoubleValue
-60.230

@<SCITEGIC>MOL_PROPERTY
W(PB)
SciTegic.value.DoubleValue
-62.557

@<SCITEGIC>MOL_PROPERTY
W(SA)
SciTegic.value.DoubleValue
2.328

@<SCITEGIC>MOL_PROPERTY
Valence
SciTegic.value.DoubleValue
7.101

@<SCITEGIC>MOL_PROPERTY
Coulomb
SciTegic.value.DoubleValue
-2.079

@<SCITEGIC>MOL_PROPERTY
VdW
SciTegic.value.DoubleValue
0.757

@<SCITEGIC>MOL_PROPERTY
VdW6
SciTegic.value.DoubleValue
-6.496

@<SCITEGIC>MOL_PROPERTY
VdW12
SciTegic.value.DoubleValue
7.253

@<SCITEGIC>MOL_PROPERTY
Bond
SciTegic.value.DoubleValue
0.100

@<SCITEGIC>MOL_PROPERTY
Angle
SciTegic.value.DoubleValue
2.262

@<SCITEGIC>MOL_PROPERTY
Pdih
SciTegic.value.DoubleValue
4.738

@<SCITEGIC>MOL_PROPERTY
Idih
SciTegic.value.DoubleValue
0.001

@<SCITEGIC>MOL_PROPERTY
Tether
SciTegic.value.DoubleValue
0.000

@<TRIPOS>MOLECULE
guest-s21_confgen4.mol2 : confsearch ligand conformer 983
          22          21           1
SMALL
USER_CHARGES
 
@<TRIPOS>ATOM
       1    C1      22.215878   21.074125   19.949565 C.2        1 MOL1         0.6145
       2    O1      21.600587   21.780110   19.175321 O.co2      1 MOL1        -0.6735
       3    O2      23.329355   21.335875   20.359580 O.co2      1 MOL1        -0.6735
       4    C2      21.545236   19.800011   20.450645 C.3        1 MOL1        -0.1985
       5    H1      22.325990   19.049977   20.625336 H          1 MOL1         0.0740
       6    H2      20.900777   19.416787   19.650352 H          1 MOL1         0.0740
       7    C3      20.719357   20.022318   21.741635 C.3        1 MOL1        -0.1882
       8    H3      21.376189   20.418530   22.528464 H          1 MOL1         0.0742
       9    H4      19.950443   20.784603   21.553907 H          1 MOL1         0.0742
      10    C4      20.050871   18.718184   22.228159 C.3        1 MOL1        -0.1880
      11    H5      20.821934   17.958803   22.416991 H          1 MOL1         0.0742
      12    H6      19.403097   18.327497   21.432597 H          1 MOL1         0.0742
      13    C5      19.224724   18.946171   23.514924 C.3        1 MOL1        -0.1880
      14    H7      19.870112   19.402637   24.277844 H          1 MOL1         0.0742
      15    H8      18.420483   19.667572   23.315651 H          1 MOL1         0.0742
      16    C6      18.621165   17.646576   24.096368 C.3        1 MOL1        -0.1856
      17    H9      18.154504   17.876928   25.064046 H          1 MOL1         0.0742
      18    H10     19.423437   16.924764   24.302904 H          1 MOL1         0.0742
      19    C7      17.563649   16.998713   23.176508 C.3        1 MOL1        -0.2871
      20    H11     17.103376   16.133491   23.670936 H          1 MOL1         0.0754
      21    H12     18.010397   16.645988   22.238582 H          1 MOL1         0.0754
      22    H13     16.765860   17.711985   22.931738 H          1 MOL1         0.0754
@<TRIPOS>BOND
    1     1     2    1
    2     1     3    2
    3     1     4    1
    4     4     5    1
    5     4     6    1
    6     4     7    1
    7     7     8    1
    8     7     9    1
    9     7    10    1
   10    10    11    1
   11    10    12    1
   12    10    13    1
   13    13    14    1
   14    13    15    1
   15    13    16    1
   16    16    17    1
   17    16    18    1
   18    16    19    1
   19    19    20    1
   20    19    21    1
   21    19    22    1
@<TRIPOS>SUBSTRUCTURE
       1 MOL1            1 RESIDUE      1      MOL     
@<SCITEGIC>MOL_PROPERTY
VConf Rank
SciTegic.value.IntegerValue
983

@<SCITEGIC>MOL_PROPERTY
Conf_Id
SciTegic.value.IntegerValue
37

@<SCITEGIC>MOL_PROPERTY
Delta U+W
SciTegic.value.DoubleValue
-0.345

@<SCITEGIC>MOL_PROPERTY
U+W
SciTegic.value.DoubleValue
-53.504

@<SCITEGIC>MOL_PROPERTY
Grad RMS
SciTegic.value.DoubleValue
0.000000

@<SCITEGIC>MOL_PROPERTY
U
SciTegic.value.DoubleValue
6.751

@<SCITEGIC>MOL_PROPERTY
W
SciTegic.value.DoubleValue
-60.255

@<SCITEGIC>MOL_PROPERTY
W(PB)
SciTegic.value.DoubleValue
-62.592

@<SCITEGIC>MOL_PROPERTY
W(SA)
SciTegic.value.DoubleValue
2.336

@<SCITEGIC>MOL_PROPERTY
Valence
SciTegic.value.DoubleValue
7.602

@<SCITEGIC>MOL_PROPERTY
Coulomb
SciTegic.value.DoubleValue
-1.744

@<SCITEGIC>MOL_PROPERTY
VdW
SciTegic.value.DoubleValue
0.894

@<SCITEGIC>MOL_PROPERTY
VdW6
SciTegic.value.DoubleValue
-7.110

@<SCITEGIC>MOL_PROPERTY
VdW12
SciTegic.value.DoubleValue
8.004

@<SCITEGIC>MOL_PROPERTY
Bond
SciTegic.value.DoubleValue
0.131

@<SCITEGIC>MOL_PROPERTY
Angle
SciTegic.value.DoubleValue
2.489

@<SCITEGIC>MOL_PROPERTY
Pdih
SciTegic.value.DoubleValue
4.982

@<SCITEGIC>MOL_PROPERTY
Idih
SciTegic.value.DoubleValue
0.001

@<SCITEGIC>MOL_PROPERTY
Tether
SciTegic.value.DoubleValue
0.000

@<TRIPOS>MOLECULE
guest-s21_confgen4.mol2 : confsearch ligand conformer 984
          22          21           1
SMALL
USER_CHARGES
 
@<TRIPOS>ATOM
       1    C1      21.982688   20.154840   25.215866 C.2        1 MOL1         0.6145
       2    O1      21.504321   19.846317   26.289379 O.co2      1 MOL1        -0.6735
       3    O2      22.719137   21.108051   25.056215 O.co2      1 MOL1        -0.6735
       4    C2      21.621582   19.312093   23.997838 C.3        1 MOL1        -0.1985
       5    H1      21.477243   18.277060   24.330297 H          1 MOL1         0.0740
       6    H2      22.478986   19.316409   23.314108 H          1 MOL1         0.0740
       7    C3      20.353828   19.820859   23.268379 C.3        1 MOL1        -0.1882
       8    H3      19.507600   19.822212   23.969411 H          1 MOL1         0.0742
       9    H4      20.509685   20.862262   22.954215 H          1 MOL1         0.0742
      10    C4      20.009735   18.951443   22.039532 C.3        1 MOL1        -0.1880
      11    H5      19.863345   17.912757   22.363364 H          1 MOL1         0.0742
      12    H6      20.856453   18.953763   21.339591 H          1 MOL1         0.0742
      13    C5      18.741371   19.461092   21.317192 C.3        1 MOL1        -0.1880
      14    H7      17.881741   19.412054   21.999517 H          1 MOL1         0.0742
      15    H8      18.876568   20.521252   21.062797 H          1 MOL1         0.0742
      16    C6      18.417497   18.682758   20.020807 C.3        1 MOL1        -0.1856
      17    H9      19.272800   18.735008   19.333031 H          1 MOL1         0.0742
      18    H10     17.579545   19.178873   19.511944 H          1 MOL1         0.0742
      19    C7      18.042242   17.206147   20.271833 C.3        1 MOL1        -0.2871
      20    H11     17.207760   17.127848   20.980807 H          1 MOL1         0.0754
      21    H12     18.891157   16.639814   20.674715 H          1 MOL1         0.0754
      22    H13     17.735942   16.723437   19.334767 H          1 MOL1         0.0754
@<TRIPOS>BOND
    1     1     2    1
    2     1     3    2
    3     1     4    1
    4     4     5    1
    5     4     6    1
    6     4     7    1
    7     7     8    1
    8     7     9    1
    9     7    10    1
   10    10    11    1
   11    10    12    1
   12    10    13    1
   13    13    14    1
   14    13    15    1
   15    13    16    1
   16    16    17    1
   17    16    18    1
   18    16    19    1
   19    19    20    1
   20    19    21    1
   21    19    22    1
@<TRIPOS>SUBSTRUCTURE
       1 MOL1            1 RESIDUE      1      MOL     
@<SCITEGIC>MOL_PROPERTY
VConf Rank
SciTegic.value.IntegerValue
984

@<SCITEGIC>MOL_PROPERTY
Conf_Id
SciTegic.value.IntegerValue
38

@<SCITEGIC>MOL_PROPERTY
Delta U+W
SciTegic.value.DoubleValue
-0.439

@<SCITEGIC>MOL_PROPERTY
U+W
SciTegic.value.DoubleValue
-53.598

@<SCITEGIC>MOL_PROPERTY
Grad RMS
SciTegic.value.DoubleValue
0.000000

@<SCITEGIC>MOL_PROPERTY
U
SciTegic.value.DoubleValue
6.751

@<SCITEGIC>MOL_PROPERTY
W
SciTegic.value.DoubleValue
-60.350

@<SCITEGIC>MOL_PROPERTY
W(PB)
SciTegic.value.DoubleValue
-62.659

@<SCITEGIC>MOL_PROPERTY
W(SA)
SciTegic.value.DoubleValue
2.309

@<SCITEGIC>MOL_PROPERTY
Valence
SciTegic.value.DoubleValue
7.602

@<SCITEGIC>MOL_PROPERTY
Coulomb
SciTegic.value.DoubleValue
-1.744

@<SCITEGIC>MOL_PROPERTY
VdW
SciTegic.value.DoubleValue
0.893

@<SCITEGIC>MOL_PROPERTY
VdW6
SciTegic.value.DoubleValue
-7.110

@<SCITEGIC>MOL_PROPERTY
VdW12
SciTegic.value.DoubleValue
8.004

@<SCITEGIC>MOL_PROPERTY
Bond
SciTegic.value.DoubleValue
0.131

@<SCITEGIC>MOL_PROPERTY
Angle
SciTegic.value.DoubleValue
2.489

@<SCITEGIC>MOL_PROPERTY
Pdih
SciTegic.value.DoubleValue
4.981

@<SCITEGIC>MOL_PROPERTY
Idih
SciTegic.value.DoubleValue
0.001

@<SCITEGIC>MOL_PROPERTY
Tether
SciTegic.value.DoubleValue
0.000

@<TRIPOS>MOLECULE
guest-s21_confgen4.mol2 : confsearch ligand conformer 985
          22          21           1
SMALL
USER_CHARGES
 
@<TRIPOS>ATOM
       1    C1      23.002792   20.347058   23.845838 C.2        1 MOL1         0.6145
       2    O1      23.654665   21.267368   23.393451 O.co2      1 MOL1        -0.6735
       3    O2      23.444930   19.531449   24.630584 O.co2      1 MOL1        -0.6735
       4    C2      21.557297   20.194249   23.385965 C.3        1 MOL1        -0.1985
       5    H1      21.156907   21.195090   23.184913 H          1 MOL1         0.0740
       6    H2      20.985041   19.776364   24.221641 H          1 MOL1         0.0740
       7    C3      21.420388   19.300176   22.126004 C.3        1 MOL1        -0.1882
       8    H3      22.082252   19.694382   21.342432 H          1 MOL1         0.0742
       9    H4      21.779155   18.286849   22.353488 H          1 MOL1         0.0742
      10    C4      19.979115   19.231665   21.566756 C.3        1 MOL1        -0.1880
      11    H5      20.012369   18.700009   20.607295 H          1 MOL1         0.0742
      12    H6      19.620527   20.246744   21.348358 H          1 MOL1         0.0742
      13    C5      18.984300   18.518612   22.515396 C.3        1 MOL1        -0.1880
      14    H7      19.343942   17.504177   22.735127 H          1 MOL1         0.0742
      15    H8      18.947752   19.050979   23.474213 H          1 MOL1         0.0742
      16    C6      17.544908   18.446498   21.954089 C.3        1 MOL1        -0.1856
      17    H9      17.185653   19.458642   21.722157 H          1 MOL1         0.0742
      18    H10     16.881719   18.054266   22.737402 H          1 MOL1         0.0742
      19    C7      17.417379   17.549596   20.703506 C.3        1 MOL1        -0.2871
      20    H11     17.967457   17.967617   19.851393 H          1 MOL1         0.0754
      21    H12     16.365298   17.455859   20.404747 H          1 MOL1         0.0754
      22    H13     17.803112   16.541187   20.902119 H          1 MOL1         0.0754
@<TRIPOS>BOND
    1     1     2    1
    2     1     3    2
    3     1     4    1
    4     4     5    1
    5     4     6    1
    6     4     7    1
    7     7     8    1
    8     7     9    1
    9     7    10    1
   10    10    11    1
   11    10    12    1
   12    10    13    1
   13    13    14    1
   14    13    15    1
   15    13    16    1
   16    16    17    1
   17    16    18    1
   18    16    19    1
   19    19    20    1
   20    19    21    1
   21    19    22    1
@<TRIPOS>SUBSTRUCTURE
       1 MOL1            1 RESIDUE      1      MOL     
@<SCITEGIC>MOL_PROPERTY
VConf Rank
SciTegic.value.IntegerValue
985

@<SCITEGIC>MOL_PROPERTY
Conf_Id
SciTegic.value.IntegerValue
60

@<SCITEGIC>MOL_PROPERTY
Delta U+W
SciTegic.value.DoubleValue
0.386

@<SCITEGIC>MOL_PROPERTY
U+W
SciTegic.value.DoubleValue
-52.773

@<SCITEGIC>MOL_PROPERTY
Grad RMS
SciTegic.value.DoubleValue
0.000000

@<SCITEGIC>MOL_PROPERTY
U
SciTegic.value.DoubleValue
7.689

@<SCITEGIC>MOL_PROPERTY
W
SciTegic.value.DoubleValue
-60.463

@<SCITEGIC>MOL_PROPERTY
W(PB)
SciTegic.value.DoubleValue
-62.772

@<SCITEGIC>MOL_PROPERTY
W(SA)
SciTegic.value.DoubleValue
2.309

@<SCITEGIC>MOL_PROPERTY
Valence
SciTegic.value.DoubleValue
8.197

@<SCITEGIC>MOL_PROPERTY
Coulomb
SciTegic.value.DoubleValue
-1.561

@<SCITEGIC>MOL_PROPERTY
VdW
SciTegic.value.DoubleValue
1.053

@<SCITEGIC>MOL_PROPERTY
VdW6
SciTegic.value.DoubleValue
-7.737

@<SCITEGIC>MOL_PROPERTY
VdW12
SciTegic.value.DoubleValue
8.790

@<SCITEGIC>MOL_PROPERTY
Bond
SciTegic.value.DoubleValue
0.181

@<SCITEGIC>MOL_PROPERTY
Angle
SciTegic.value.DoubleValue
2.780

@<SCITEGIC>MOL_PROPERTY
Pdih
SciTegic.value.DoubleValue
5.235

@<SCITEGIC>MOL_PROPERTY
Idih
SciTegic.value.DoubleValue
0.001

@<SCITEGIC>MOL_PROPERTY
Tether
SciTegic.value.DoubleValue
0.000

@<TRIPOS>MOLECULE
guest-s21_confgen4.mol2 : confsearch ligand conformer 986
          22          21           1
SMALL
USER_CHARGES
 
@<TRIPOS>ATOM
       1    C1      18.764050   21.661020   24.598837 C.2        1 MOL1         0.6145
       2    O1      17.890907   22.333542   24.087103 O.co2      1 MOL1        -0.6735
       3    O2      19.423911   22.027035   25.551295 O.co2      1 MOL1        -0.6735
       4    C2      19.063666   20.291881   23.998858 C.3        1 MOL1        -0.1985
       5    H1      18.121850   19.883464   23.615922 H          1 MOL1         0.0740
       6    H2      19.399903   19.632410   24.807844 H          1 MOL1         0.0740
       7    C3      20.132779   20.350047   22.876704 C.3        1 MOL1        -0.1882
       8    H3      19.764797   20.973660   22.050271 H          1 MOL1         0.0742
       9    H4      21.027086   20.853139   23.269845 H          1 MOL1         0.0742
      10    C4      20.544995   18.958784   22.338945 C.3        1 MOL1        -0.1880
      11    H5      20.904583   18.335293   23.168778 H          1 MOL1         0.0742
      12    H6      21.396756   19.095913   21.660691 H          1 MOL1         0.0742
      13    C5      19.404588   18.225843   21.590423 C.3        1 MOL1        -0.1880
      14    H7      18.553351   18.085233   22.268438 H          1 MOL1         0.0742
      15    H8      19.043812   18.850263   20.761784 H          1 MOL1         0.0742
      16    C6      19.818411   16.837332   21.049221 C.3        1 MOL1        -0.1856
      17    H9      18.924563   16.332306   20.657775 H          1 MOL1         0.0742
      18    H10     20.190795   16.213434   21.873463 H          1 MOL1         0.0742
      19    C7      20.878354   16.905818   19.928291 C.3        1 MOL1        -0.2871
      20    H11     20.541569   17.552952   19.107975 H          1 MOL1         0.0754
      21    H12     21.064329   15.906037   19.515048 H          1 MOL1         0.0754
      22    H13     21.834399   17.292473   20.302326 H          1 MOL1         0.0754
@<TRIPOS>BOND
    1     1     2    1
    2     1     3    2
    3     1     4    1
    4     4     5    1
    5     4     6    1
    6     4     7    1
    7     7     8    1
    8     7     9    1
    9     7    10    1
   10    10    11    1
   11    10    12    1
   12    10    13    1
   13    13    14    1
   14    13    15    1
   15    13    16    1
   16    16    17    1
   17    16    18    1
   18    16    19    1
   19    19    20    1
   20    19    21    1
   21    19    22    1
@<TRIPOS>SUBSTRUCTURE
       1 MOL1            1 RESIDUE      1      MOL     
@<SCITEGIC>MOL_PROPERTY
VConf Rank
SciTegic.value.IntegerValue
986

@<SCITEGIC>MOL_PROPERTY
Conf_Id
SciTegic.value.IntegerValue
28

@<SCITEGIC>MOL_PROPERTY
Delta U+W
SciTegic.value.DoubleValue
0.351

@<SCITEGIC>MOL_PROPERTY
U+W
SciTegic.value.DoubleValue
-52.808

@<SCITEGIC>MOL_PROPERTY
Grad RMS
SciTegic.value.DoubleValue
0.000000

@<SCITEGIC>MOL_PROPERTY
U
SciTegic.value.DoubleValue
7.689

@<SCITEGIC>MOL_PROPERTY
W
SciTegic.value.DoubleValue
-60.498

@<SCITEGIC>MOL_PROPERTY
W(PB)
SciTegic.value.DoubleValue
-62.768

@<SCITEGIC>MOL_PROPERTY
W(SA)
SciTegic.value.DoubleValue
2.270

@<SCITEGIC>MOL_PROPERTY
Valence
SciTegic.value.DoubleValue
8.197

@<SCITEGIC>MOL_PROPERTY
Coulomb
SciTegic.value.DoubleValue
-1.561

@<SCITEGIC>MOL_PROPERTY
VdW
SciTegic.value.DoubleValue
1.053

@<SCITEGIC>MOL_PROPERTY
VdW6
SciTegic.value.DoubleValue
-7.737

@<SCITEGIC>MOL_PROPERTY
VdW12
SciTegic.value.DoubleValue
8.791

@<SCITEGIC>MOL_PROPERTY
Bond
SciTegic.value.DoubleValue
0.181

@<SCITEGIC>MOL_PROPERTY
Angle
SciTegic.value.DoubleValue
2.780

@<SCITEGIC>MOL_PROPERTY
Pdih
SciTegic.value.DoubleValue
5.235

@<SCITEGIC>MOL_PROPERTY
Idih
SciTegic.value.DoubleValue
0.001

@<SCITEGIC>MOL_PROPERTY
Tether
SciTegic.value.DoubleValue
0.000

@<TRIPOS>MOLECULE
guest-s21_confgen4.mol2 : confsearch ligand conformer 987
          22          21           1
SMALL
USER_CHARGES
 
@<TRIPOS>ATOM
       1    C1      23.548069   19.697283   22.566051 C.2        1 MOL1         0.6145
       2    O1      24.238000   18.904505   23.175944 O.co2      1 MOL1        -0.6735
       3    O2      23.891904   20.231053   21.530038 O.co2      1 MOL1        -0.6735
       4    C2      22.166466   20.025266   23.120958 C.3        1 MOL1        -0.1985
       5    H1      21.931146   21.063524   22.857719 H          1 MOL1         0.0740
       6    H2      22.217469   19.971602   24.215095 H          1 MOL1         0.0740
       7    C3      21.063894   19.076623   22.589267 C.3        1 MOL1        -0.1882
       8    H3      21.046204   19.132964   21.492918 H          1 MOL1         0.0742
       9    H4      21.318542   18.040822   22.853040 H          1 MOL1         0.0742
      10    C4      19.673652   19.434606   23.163843 C.3        1 MOL1        -0.1880
      11    H5      19.395835   20.451908   22.855779 H          1 MOL1         0.0742
      12    H6      19.733371   19.447405   24.260762 H          1 MOL1         0.0742
      13    C5      18.560491   18.444880   22.745662 C.3        1 MOL1        -0.1880
      14    H7      18.836035   17.428028   23.057140 H          1 MOL1         0.0742
      15    H8      17.643789   18.700025   23.294739 H          1 MOL1         0.0742
      16    C6      18.258049   18.461553   21.230227 C.3        1 MOL1        -0.1856
      17    H9      19.139905   18.133315   20.664588 H          1 MOL1         0.0742
      18    H10     18.033888   19.487849   20.908241 H          1 MOL1         0.0742
      19    C7      17.068849   17.544178   20.881029 C.3        1 MOL1        -0.2871
      20    H11     16.157167   17.867061   21.400584 H          1 MOL1         0.0754
      21    H12     17.277412   16.505119   21.167812 H          1 MOL1         0.0754
      22    H13     16.868759   17.564321   19.801850 H          1 MOL1         0.0754
@<TRIPOS>BOND
    1     1     2    1
    2     1     3    2
    3     1     4    1
    4     4     5    1
    5     4     6    1
    6     4     7    1
    7     7     8    1
    8     7     9    1
    9     7    10    1
   10    10    11    1
   11    10    12    1
   12    10    13    1
   13    13    14    1
   14    13    15    1
   15    13    16    1
   16    16    17    1
   17    16    18    1
   18    16    19    1
   19    19    20    1
   20    19    21    1
   21    19    22    1
@<TRIPOS>SUBSTRUCTURE
       1 MOL1            1 RESIDUE      1      MOL     
@<SCITEGIC>MOL_PROPERTY
VConf Rank
SciTegic.value.IntegerValue
987

@<SCITEGIC>MOL_PROPERTY
Conf_Id
SciTegic.value.IntegerValue
50

@<SCITEGIC>MOL_PROPERTY
Delta U+W
SciTegic.value.DoubleValue
-0.486

@<SCITEGIC>MOL_PROPERTY
U+W
SciTegic.value.DoubleValue
-53.646

@<SCITEGIC>MOL_PROPERTY
Grad RMS
SciTegic.value.DoubleValue
0.000000

@<SCITEGIC>MOL_PROPERTY
U
SciTegic.value.DoubleValue
7.026

@<SCITEGIC>MOL_PROPERTY
W
SciTegic.value.DoubleValue
-60.672

@<SCITEGIC>MOL_PROPERTY
W(PB)
SciTegic.value.DoubleValue
-62.964

@<SCITEGIC>MOL_PROPERTY
W(SA)
SciTegic.value.DoubleValue
2.292

@<SCITEGIC>MOL_PROPERTY
Valence
SciTegic.value.DoubleValue
7.637

@<SCITEGIC>MOL_PROPERTY
Coulomb
SciTegic.value.DoubleValue
-1.488

@<SCITEGIC>MOL_PROPERTY
VdW
SciTegic.value.DoubleValue
0.877

@<SCITEGIC>MOL_PROPERTY
VdW6
SciTegic.value.DoubleValue
-7.165

@<SCITEGIC>MOL_PROPERTY
VdW12
SciTegic.value.DoubleValue
8.043

@<SCITEGIC>MOL_PROPERTY
Bond
SciTegic.value.DoubleValue
0.134

@<SCITEGIC>MOL_PROPERTY
Angle
SciTegic.value.DoubleValue
2.513

@<SCITEGIC>MOL_PROPERTY
Pdih
SciTegic.value.DoubleValue
4.990

@<SCITEGIC>MOL_PROPERTY
Idih
SciTegic.value.DoubleValue
0.001

@<SCITEGIC>MOL_PROPERTY
Tether
SciTegic.value.DoubleValue
0.000

@<TRIPOS>MOLECULE
guest-s21_confgen4.mol2 : confsearch ligand conformer 988
          22          21           1
SMALL
USER_CHARGES
 
@<TRIPOS>ATOM
       1    C1      16.035234   18.556969   22.151918 C.2        1 MOL1         0.6145
       2    O1      15.376717   19.493003   21.743670 O.co2      1 MOL1        -0.6735
       3    O2      15.722099   17.881960   23.112524 O.co2      1 MOL1        -0.6735
       4    C2      17.336838   18.223840   21.431376 C.3        1 MOL1        -0.1985
       5    H1      17.210264   18.467569   20.369683 H          1 MOL1         0.0740
       6    H2      17.496200   17.140927   21.498837 H          1 MOL1         0.0740
       7    C3      18.556830   18.980264   22.012531 C.3        1 MOL1        -0.1882
       8    H3      18.377951   20.062334   21.945976 H          1 MOL1         0.0742
       9    H4      18.650346   18.735963   23.078852 H          1 MOL1         0.0742
      10    C4      19.862781   18.620515   21.266782 C.3        1 MOL1        -0.1880
      11    H5      19.721252   18.800328   20.192259 H          1 MOL1         0.0742
      12    H6      20.069574   17.547244   21.377746 H          1 MOL1         0.0742
      13    C5      21.088644   19.435810   21.742298 C.3        1 MOL1        -0.1880
      14    H7      21.935424   19.209056   21.080125 H          1 MOL1         0.0742
      15    H8      20.883787   20.509055   21.627796 H          1 MOL1         0.0742
      16    C6      21.499605   19.136694   23.201726 C.3        1 MOL1        -0.1856
      17    H9      21.653312   18.056303   23.329532 H          1 MOL1         0.0742
      18    H10     20.695281   19.429778   23.889130 H          1 MOL1         0.0742
      19    C7      22.789402   19.886852   23.590835 C.3        1 MOL1        -0.2871
      20    H11     22.654944   20.972556   23.498355 H          1 MOL1         0.0754
      21    H12     23.627229   19.588860   22.946937 H          1 MOL1         0.0754
      22    H13     23.066153   19.666875   24.630108 H          1 MOL1         0.0754
@<TRIPOS>BOND
    1     1     2    1
    2     1     3    2
    3     1     4    1
    4     4     5    1
    5     4     6    1
    6     4     7    1
    7     7     8    1
    8     7     9    1
    9     7    10    1
   10    10    11    1
   11    10    12    1
   12    10    13    1
   13    13    14    1
   14    13    15    1
   15    13    16    1
   16    16    17    1
   17    16    18    1
   18    16    19    1
   19    19    20    1
   20    19    21    1
   21    19    22    1
@<TRIPOS>SUBSTRUCTURE
       1 MOL1            1 RESIDUE      1      MOL     
@<SCITEGIC>MOL_PROPERTY
VConf Rank
SciTegic.value.IntegerValue
988

@<SCITEGIC>MOL_PROPERTY
Conf_Id
SciTegic.value.IntegerValue
51

@<SCITEGIC>MOL_PROPERTY
Delta U+W
SciTegic.value.DoubleValue
-0.517

@<SCITEGIC>MOL_PROPERTY
U+W
SciTegic.value.DoubleValue
-53.677

@<SCITEGIC>MOL_PROPERTY
Grad RMS
SciTegic.value.DoubleValue
0.000000

@<SCITEGIC>MOL_PROPERTY
U
SciTegic.value.DoubleValue
7.026

@<SCITEGIC>MOL_PROPERTY
W
SciTegic.value.DoubleValue
-60.703

@<SCITEGIC>MOL_PROPERTY
W(PB)
SciTegic.value.DoubleValue
-63.007

@<SCITEGIC>MOL_PROPERTY
W(SA)
SciTegic.value.DoubleValue
2.304

@<SCITEGIC>MOL_PROPERTY
Valence
SciTegic.value.DoubleValue
7.638

@<SCITEGIC>MOL_PROPERTY
Coulomb
SciTegic.value.DoubleValue
-1.488

@<SCITEGIC>MOL_PROPERTY
VdW
SciTegic.value.DoubleValue
0.877

@<SCITEGIC>MOL_PROPERTY
VdW6
SciTegic.value.DoubleValue
-7.165

@<SCITEGIC>MOL_PROPERTY
VdW12
SciTegic.value.DoubleValue
8.042

@<SCITEGIC>MOL_PROPERTY
Bond
SciTegic.value.DoubleValue
0.134

@<SCITEGIC>MOL_PROPERTY
Angle
SciTegic.value.DoubleValue
2.513

@<SCITEGIC>MOL_PROPERTY
Pdih
SciTegic.value.DoubleValue
4.990

@<SCITEGIC>MOL_PROPERTY
Idih
SciTegic.value.DoubleValue
0.001

@<SCITEGIC>MOL_PROPERTY
Tether
SciTegic.value.DoubleValue
0.000

@<TRIPOS>MOLECULE
guest-s21_confgen4.mol2 : confsearch ligand conformer 989
          22          21           1
SMALL
USER_CHARGES
 
@<TRIPOS>ATOM
       1    C1      20.161205   16.121960   20.246368 C.2        1 MOL1         0.6145
       2    O1      20.618715   16.389177   19.152668 O.co2      1 MOL1        -0.6735
       3    O2      20.678212   15.338668   21.018345 O.co2      1 MOL1        -0.6735
       4    C2      18.855823   16.793735   20.663297 C.3        1 MOL1        -0.1985
       5    H1      18.408579   16.213653   21.479620 H          1 MOL1         0.0740
       6    H2      18.167010   16.728021   19.812850 H          1 MOL1         0.0740
       7    C3      19.016763   18.277102   21.086042 C.3        1 MOL1        -0.1882
       8    H3      19.491330   18.838826   20.269398 H          1 MOL1         0.0742
       9    H4      18.020599   18.715569   21.234182 H          1 MOL1         0.0742
      10    C4      19.842593   18.439435   22.381897 C.3        1 MOL1        -0.1880
      11    H5      20.846934   18.018245   22.235935 H          1 MOL1         0.0742
      12    H6      19.371384   17.865560   23.191617 H          1 MOL1         0.0742
      13    C5      19.963438   19.920353   22.801096 C.3        1 MOL1        -0.1880
      14    H7      20.434755   20.493539   21.990894 H          1 MOL1         0.0742
      15    H8      18.960406   20.343050   22.950471 H          1 MOL1         0.0742
      16    C6      20.788689   20.083328   24.094713 C.3        1 MOL1        -0.1856
      17    H9      21.793457   19.663149   23.948451 H          1 MOL1         0.0742
      18    H10     20.319275   19.512601   24.907968 H          1 MOL1         0.0742
      19    C7      20.907754   21.563476   24.509855 C.3        1 MOL1        -0.2871
      20    H11     21.402907   22.152429   23.726683 H          1 MOL1         0.0754
      21    H12     21.497229   21.660750   25.430801 H          1 MOL1         0.0754
      22    H13     19.917576   22.000801   24.693401 H          1 MOL1         0.0754
@<TRIPOS>BOND
    1     1     2    1
    2     1     3    2
    3     1     4    1
    4     4     5    1
    5     4     6    1
    6     4     7    1
    7     7     8    1
    8     7     9    1
    9     7    10    1
   10    10    11    1
   11    10    12    1
   12    10    13    1
   13    13    14    1
   14    13    15    1
   15    13    16    1
   16    16    17    1
   17    16    18    1
   18    16    19    1
   19    19    20    1
   20    19    21    1
   21    19    22    1
@<TRIPOS>SUBSTRUCTURE
       1 MOL1            1 RESIDUE      1      MOL     
@<SCITEGIC>MOL_PROPERTY
VConf Rank
SciTegic.value.IntegerValue
989

@<SCITEGIC>MOL_PROPERTY
Conf_Id
SciTegic.value.IntegerValue
43

@<SCITEGIC>MOL_PROPERTY
Delta U+W
SciTegic.value.DoubleValue
-0.129

@<SCITEGIC>MOL_PROPERTY
U+W
SciTegic.value.DoubleValue
-53.289

@<SCITEGIC>MOL_PROPERTY
Grad RMS
SciTegic.value.DoubleValue
0.000000

@<SCITEGIC>MOL_PROPERTY
U
SciTegic.value.DoubleValue
7.937

@<SCITEGIC>MOL_PROPERTY
W
SciTegic.value.DoubleValue
-61.225

@<SCITEGIC>MOL_PROPERTY
W(PB)
SciTegic.value.DoubleValue
-63.523

@<SCITEGIC>MOL_PROPERTY
W(SA)
SciTegic.value.DoubleValue
2.297

@<SCITEGIC>MOL_PROPERTY
Valence
SciTegic.value.DoubleValue
7.358

@<SCITEGIC>MOL_PROPERTY
Coulomb
SciTegic.value.DoubleValue
-0.022

@<SCITEGIC>MOL_PROPERTY
VdW
SciTegic.value.DoubleValue
0.601

@<SCITEGIC>MOL_PROPERTY
VdW6
SciTegic.value.DoubleValue
-7.363

@<SCITEGIC>MOL_PROPERTY
VdW12
SciTegic.value.DoubleValue
7.964

@<SCITEGIC>MOL_PROPERTY
Bond
SciTegic.value.DoubleValue
0.121

@<SCITEGIC>MOL_PROPERTY
Angle
SciTegic.value.DoubleValue
2.425

@<SCITEGIC>MOL_PROPERTY
Pdih
SciTegic.value.DoubleValue
4.811

@<SCITEGIC>MOL_PROPERTY
Idih
SciTegic.value.DoubleValue
0.000

@<SCITEGIC>MOL_PROPERTY
Tether
SciTegic.value.DoubleValue
0.000

@<TRIPOS>MOLECULE
guest-s21_confgen4.mol2 : confsearch ligand conformer 990
          22          21           1
SMALL
USER_CHARGES
 
@<TRIPOS>ATOM
       1    C1      19.701832   16.382574   20.160242 C.2        1 MOL1         0.6145
       2    O1      18.760870   16.390605   19.391198 O.co2      1 MOL1        -0.6735
       3    O2      19.902563   15.496995   20.967860 O.co2      1 MOL1        -0.6735
       4    C2      20.694553   17.539821   20.093791 C.3        1 MOL1        -0.1985
       5    H1      20.925601   17.713327   19.036174 H          1 MOL1         0.0740
       6    H2      21.628991   17.227763   20.575817 H          1 MOL1         0.0740
       7    C3      20.175179   18.853927   20.732833 C.3        1 MOL1        -0.1882
       8    H3      20.889107   19.660785   20.518760 H          1 MOL1         0.0742
       9    H4      19.225180   19.138255   20.259217 H          1 MOL1         0.0742
      10    C4      19.983186   18.735946   22.261495 C.3        1 MOL1        -0.1880
      11    H5      20.932133   18.438828   22.728652 H          1 MOL1         0.0742
      12    H6      19.256880   17.941727   22.483090 H          1 MOL1         0.0742
      13    C5      19.496171   20.063668   22.880710 C.3        1 MOL1        -0.1880
      14    H7      20.222264   20.858913   22.662920 H          1 MOL1         0.0742
      15    H8      18.547186   20.360080   22.413080 H          1 MOL1         0.0742
      16    C6      19.303470   19.946397   24.407197 C.3        1 MOL1        -0.1856
      17    H9      20.251242   19.651613   24.878677 H          1 MOL1         0.0742
      18    H10     18.576298   19.152922   24.628833 H          1 MOL1         0.0742
      19    C7      18.816511   21.273927   25.021926 C.3        1 MOL1        -0.2871
      20    H11     19.540940   22.079090   24.842174 H          1 MOL1         0.0754
      21    H12     18.684857   21.172482   26.107035 H          1 MOL1         0.0754
      22    H13     17.853372   21.576591   24.590463 H          1 MOL1         0.0754
@<TRIPOS>BOND
    1     1     2    1
    2     1     3    2
    3     1     4    1
    4     4     5    1
    5     4     6    1
    6     4     7    1
    7     7     8    1
    8     7     9    1
    9     7    10    1
   10    10    11    1
   11    10    12    1
   12    10    13    1
   13    13    14    1
   14    13    15    1
   15    13    16    1
   16    16    17    1
   17    16    18    1
   18    16    19    1
   19    19    20    1
   20    19    21    1
   21    19    22    1
@<TRIPOS>SUBSTRUCTURE
       1 MOL1            1 RESIDUE      1      MOL     
@<SCITEGIC>MOL_PROPERTY
VConf Rank
SciTegic.value.IntegerValue
990

@<SCITEGIC>MOL_PROPERTY
Conf_Id
SciTegic.value.IntegerValue
44

@<SCITEGIC>MOL_PROPERTY
Delta U+W
SciTegic.value.DoubleValue
-0.155

@<SCITEGIC>MOL_PROPERTY
U+W
SciTegic.value.DoubleValue
-53.314

@<SCITEGIC>MOL_PROPERTY
Grad RMS
SciTegic.value.DoubleValue
0.000000

@<SCITEGIC>MOL_PROPERTY
U
SciTegic.value.DoubleValue
7.937

@<SCITEGIC>MOL_PROPERTY
W
SciTegic.value.DoubleValue
-61.252

@<SCITEGIC>MOL_PROPERTY
W(PB)
SciTegic.value.DoubleValue
-63.556

@<SCITEGIC>MOL_PROPERTY
W(SA)
SciTegic.value.DoubleValue
2.304

@<SCITEGIC>MOL_PROPERTY
Valence
SciTegic.value.DoubleValue
7.358

@<SCITEGIC>MOL_PROPERTY
Coulomb
SciTegic.value.DoubleValue
-0.021

@<SCITEGIC>MOL_PROPERTY
VdW
SciTegic.value.DoubleValue
0.600

@<SCITEGIC>MOL_PROPERTY
VdW6
SciTegic.value.DoubleValue
-7.363

@<SCITEGIC>MOL_PROPERTY
VdW12
SciTegic.value.DoubleValue
7.964

@<SCITEGIC>MOL_PROPERTY
Bond
SciTegic.value.DoubleValue
0.121

@<SCITEGIC>MOL_PROPERTY
Angle
SciTegic.value.DoubleValue
2.425

@<SCITEGIC>MOL_PROPERTY
Pdih
SciTegic.value.DoubleValue
4.811

@<SCITEGIC>MOL_PROPERTY
Idih
SciTegic.value.DoubleValue
0.001

@<SCITEGIC>MOL_PROPERTY
Tether
SciTegic.value.DoubleValue
0.000

@<TRIPOS>MOLECULE
guest-s21_confgen4.mol2 : confsearch ligand conformer 991
          22          21           1
SMALL
USER_CHARGES
 
@<TRIPOS>ATOM
       1    C1      21.511174   15.961480   22.224534 C.2        1 MOL1         0.6145
       2    O1      21.013598   15.182107   21.435915 O.co2      1 MOL1        -0.6735
       3    O2      21.789352   15.671504   23.371442 O.co2      1 MOL1        -0.6735
       4    C2      21.820363   17.375445   21.740369 C.3        1 MOL1        -0.1985
       5    H1      22.309872   17.286739   20.763361 H          1 MOL1         0.0740
       6    H2      22.551388   17.827401   22.421712 H          1 MOL1         0.0740
       7    C3      20.572378   18.287514   21.612740 C.3        1 MOL1        -0.1882
       8    H3      20.872279   19.218973   21.116142 H          1 MOL1         0.0742
       9    H4      19.833065   17.803174   20.959875 H          1 MOL1         0.0742
      10    C4      19.930344   18.610579   22.983371 C.3        1 MOL1        -0.1880
      11    H5      20.657924   19.132532   23.619764 H          1 MOL1         0.0742
      12    H6      19.687784   17.670829   23.498177 H          1 MOL1         0.0742
      13    C5      18.637214   19.453185   22.875416 C.3        1 MOL1        -0.1880
      14    H7      17.909997   18.930946   22.238753 H          1 MOL1         0.0742
      15    H8      18.183032   19.521676   23.873379 H          1 MOL1         0.0742
      16    C6      18.873604   20.881220   22.333882 C.3        1 MOL1        -0.1856
      17    H9      19.252739   20.838054   21.304509 H          1 MOL1         0.0742
      18    H10     19.641107   21.384388   22.937998 H          1 MOL1         0.0742
      19    C7      17.577020   21.715577   22.355278 C.3        1 MOL1        -0.2871
      20    H11     16.799733   21.248692   21.736225 H          1 MOL1         0.0754
      21    H12     17.760282   22.725111   21.964998 H          1 MOL1         0.0754
      22    H13     17.188808   21.813029   23.377605 H          1 MOL1         0.0754
@<TRIPOS>BOND
    1     1     2    1
    2     1     3    2
    3     1     4    1
    4     4     5    1
    5     4     6    1
    6     4     7    1
    7     7     8    1
    8     7     9    1
    9     7    10    1
   10    10    11    1
   11    10    12    1
   12    10    13    1
   13    13    14    1
   14    13    15    1
   15    13    16    1
   16    16    17    1
   17    16    18    1
   18    16    19    1
   19    19    20    1
   20    19    21    1
   21    19    22    1
@<TRIPOS>SUBSTRUCTURE
       1 MOL1            1 RESIDUE      1      MOL     
@<SCITEGIC>MOL_PROPERTY
VConf Rank
SciTegic.value.IntegerValue
991

@<SCITEGIC>MOL_PROPERTY
Conf_Id
SciTegic.value.IntegerValue
53

@<SCITEGIC>MOL_PROPERTY
Delta U+W
SciTegic.value.DoubleValue
0.723

@<SCITEGIC>MOL_PROPERTY
U+W
SciTegic.value.DoubleValue
-52.436

@<SCITEGIC>MOL_PROPERTY
Grad RMS
SciTegic.value.DoubleValue
0.000000

@<SCITEGIC>MOL_PROPERTY
U
SciTegic.value.DoubleValue
8.587

@<SCITEGIC>MOL_PROPERTY
W
SciTegic.value.DoubleValue
-61.022

@<SCITEGIC>MOL_PROPERTY
W(PB)
SciTegic.value.DoubleValue
-63.285

@<SCITEGIC>MOL_PROPERTY
W(SA)
SciTegic.value.DoubleValue
2.263

@<SCITEGIC>MOL_PROPERTY
Valence
SciTegic.value.DoubleValue
7.933

@<SCITEGIC>MOL_PROPERTY
Coulomb
SciTegic.value.DoubleValue
-0.124

@<SCITEGIC>MOL_PROPERTY
VdW
SciTegic.value.DoubleValue
0.778

@<SCITEGIC>MOL_PROPERTY
VdW6
SciTegic.value.DoubleValue
-7.981

@<SCITEGIC>MOL_PROPERTY
VdW12
SciTegic.value.DoubleValue
8.759

@<SCITEGIC>MOL_PROPERTY
Bond
SciTegic.value.DoubleValue
0.160

@<SCITEGIC>MOL_PROPERTY
Angle
SciTegic.value.DoubleValue
2.698

@<SCITEGIC>MOL_PROPERTY
Pdih
SciTegic.value.DoubleValue
5.074

@<SCITEGIC>MOL_PROPERTY
Idih
SciTegic.value.DoubleValue
0.001

@<SCITEGIC>MOL_PROPERTY
Tether
SciTegic.value.DoubleValue
0.000

@<TRIPOS>MOLECULE
guest-s21_confgen4.mol2 : confsearch ligand conformer 992
          22          21           1
SMALL
USER_CHARGES
 
@<TRIPOS>ATOM
       1    C1      17.750119   17.180936   20.375568 C.2        1 MOL1         0.6145
       2    O1      16.705802   17.782012   20.218478 O.co2      1 MOL1        -0.6735
       3    O2      18.012115   16.131638   19.821571 O.co2      1 MOL1        -0.6735
       4    C2      18.798478   17.787569   21.301279 C.3        1 MOL1        -0.1985
       5    H1      19.366474   16.967761   21.756885 H          1 MOL1         0.0740
       6    H2      18.267860   18.309363   22.105583 H          1 MOL1         0.0740
       7    C3      19.755776   18.760644   20.567904 C.3        1 MOL1        -0.1882
       8    H3      20.167986   18.250887   19.686058 H          1 MOL1         0.0742
       9    H4      19.179948   19.615546   20.187351 H          1 MOL1         0.0742
      10    C4      20.933650   19.272407   21.434723 C.3        1 MOL1        -0.1880
      11    H5      21.561797   19.908573   20.796232 H          1 MOL1         0.0742
      12    H6      21.572256   18.431508   21.738084 H          1 MOL1         0.0742
      13    C5      20.510872   20.100928   22.674288 C.3        1 MOL1        -0.1880
      14    H7      21.244068   20.905760   22.821465 H          1 MOL1         0.0742
      15    H8      19.547916   20.595572   22.487188 H          1 MOL1         0.0742
      16    C6      20.444845   19.267721   23.975118 C.3        1 MOL1        -0.1856
      17    H9      21.430184   18.826546   24.179238 H          1 MOL1         0.0742
      18    H10     19.744028   18.431809   23.863436 H          1 MOL1         0.0742
      19    C7      20.015169   20.131065   25.178175 C.3        1 MOL1        -0.2871
      20    H11     20.721077   20.955715   25.342426 H          1 MOL1         0.0754
      21    H12     19.979845   19.527543   26.094443 H          1 MOL1         0.0754
      22    H13     19.017723   20.560366   25.016435 H          1 MOL1         0.0754
@<TRIPOS>BOND
    1     1     2    1
    2     1     3    2
    3     1     4    1
    4     4     5    1
    5     4     6    1
    6     4     7    1
    7     7     8    1
    8     7     9    1
    9     7    10    1
   10    10    11    1
   11    10    12    1
   12    10    13    1
   13    13    14    1
   14    13    15    1
   15    13    16    1
   16    16    17    1
   17    16    18    1
   18    16    19    1
   19    19    20    1
   20    19    21    1
   21    19    22    1
@<TRIPOS>SUBSTRUCTURE
       1 MOL1            1 RESIDUE      1      MOL     
@<SCITEGIC>MOL_PROPERTY
VConf Rank
SciTegic.value.IntegerValue
992

@<SCITEGIC>MOL_PROPERTY
Conf_Id
SciTegic.value.IntegerValue
5

@<SCITEGIC>MOL_PROPERTY
Delta U+W
SciTegic.value.DoubleValue
2.167

@<SCITEGIC>MOL_PROPERTY
U+W
SciTegic.value.DoubleValue
-50.993

@<SCITEGIC>MOL_PROPERTY
Grad RMS
SciTegic.value.DoubleValue
0.000000

@<SCITEGIC>MOL_PROPERTY
U
SciTegic.value.DoubleValue
10.045

@<SCITEGIC>MOL_PROPERTY
W
SciTegic.value.DoubleValue
-61.037

@<SCITEGIC>MOL_PROPERTY
W(PB)
SciTegic.value.DoubleValue
-63.303

@<SCITEGIC>MOL_PROPERTY
W(SA)
SciTegic.value.DoubleValue
2.266

@<SCITEGIC>MOL_PROPERTY
Valence
SciTegic.value.DoubleValue
10.100

@<SCITEGIC>MOL_PROPERTY
Coulomb
SciTegic.value.DoubleValue
-0.883

@<SCITEGIC>MOL_PROPERTY
VdW
SciTegic.value.DoubleValue
0.828

@<SCITEGIC>MOL_PROPERTY
VdW6
SciTegic.value.DoubleValue
-8.177

@<SCITEGIC>MOL_PROPERTY
VdW12
SciTegic.value.DoubleValue
9.005

@<SCITEGIC>MOL_PROPERTY
Bond
SciTegic.value.DoubleValue
0.182

@<SCITEGIC>MOL_PROPERTY
Angle
SciTegic.value.DoubleValue
2.988

@<SCITEGIC>MOL_PROPERTY
Pdih
SciTegic.value.DoubleValue
6.930

@<SCITEGIC>MOL_PROPERTY
Idih
SciTegic.value.DoubleValue
0.001

@<SCITEGIC>MOL_PROPERTY
Tether
SciTegic.value.DoubleValue
0.000

@<TRIPOS>MOLECULE
guest-s21_confgen4.mol2 : confsearch ligand conformer 993
          22          21           1
SMALL
USER_CHARGES
 
@<TRIPOS>ATOM
       1    C1      21.063499   16.071130   23.672140 C.2        1 MOL1         0.6145
       2    O1      22.246615   16.212419   23.910558 O.co2      1 MOL1        -0.6735
       3    O2      20.466001   15.024762   23.829284 O.co2      1 MOL1        -0.6735
       4    C2      20.291171   17.265802   23.124172 C.3        1 MOL1        -0.1985
       5    H1      20.719803   18.170148   23.570450 H          1 MOL1         0.0740
       6    H2      19.252860   17.187311   23.467727 H          1 MOL1         0.0740
       7    C3      20.339313   17.353587   21.577848 C.3        1 MOL1        -0.1882
       8    H3      21.378213   17.512133   21.257217 H          1 MOL1         0.0742
       9    H4      20.033582   16.384105   21.160649 H          1 MOL1         0.0742
      10    C4      19.434858   18.456197   20.972137 C.3        1 MOL1        -0.1880
      11    H5      18.381188   18.250374   21.205311 H          1 MOL1         0.0742
      12    H6      19.517158   18.387413   19.878775 H          1 MOL1         0.0742
      13    C5      19.806672   19.900335   21.393956 C.3        1 MOL1        -0.1880
      14    H7      20.878574   19.961419   21.626888 H          1 MOL1         0.0742
      15    H8      19.642151   20.566683   20.536106 H          1 MOL1         0.0742
      16    C6      18.966629   20.428069   22.579950 C.3        1 MOL1        -0.1856
      17    H9      19.077452   19.774202   23.453186 H          1 MOL1         0.0742
      18    H10     17.901544   20.414642   22.310492 H          1 MOL1         0.0742
      19    C7      19.375046   21.863466   22.967462 C.3        1 MOL1        -0.2871
      20    H11     20.428786   21.902328   23.273209 H          1 MOL1         0.0754
      21    H12     18.765501   22.226257   23.805239 H          1 MOL1         0.0754
      22    H13     19.236854   22.552797   22.124220 H          1 MOL1         0.0754
@<TRIPOS>BOND
    1     1     2    1
    2     1     3    2
    3     1     4    1
    4     4     5    1
    5     4     6    1
    6     4     7    1
    7     7     8    1
    8     7     9    1
    9     7    10    1
   10    10    11    1
   11    10    12    1
   12    10    13    1
   13    13    14    1
   14    13    15    1
   15    13    16    1
   16    16    17    1
   17    16    18    1
   18    16    19    1
   19    19    20    1
   20    19    21    1
   21    19    22    1
@<TRIPOS>SUBSTRUCTURE
       1 MOL1            1 RESIDUE      1      MOL     
@<SCITEGIC>MOL_PROPERTY
VConf Rank
SciTegic.value.IntegerValue
993

@<SCITEGIC>MOL_PROPERTY
Conf_Id
SciTegic.value.IntegerValue
6

@<SCITEGIC>MOL_PROPERTY
Delta U+W
SciTegic.value.DoubleValue
2.118

@<SCITEGIC>MOL_PROPERTY
U+W
SciTegic.value.DoubleValue
-51.042

@<SCITEGIC>MOL_PROPERTY
Grad RMS
SciTegic.value.DoubleValue
0.000000

@<SCITEGIC>MOL_PROPERTY
U
SciTegic.value.DoubleValue
10.045

@<SCITEGIC>MOL_PROPERTY
W
SciTegic.value.DoubleValue
-61.086

@<SCITEGIC>MOL_PROPERTY
W(PB)
SciTegic.value.DoubleValue
-63.356

@<SCITEGIC>MOL_PROPERTY
W(SA)
SciTegic.value.DoubleValue
2.270

@<SCITEGIC>MOL_PROPERTY
Valence
SciTegic.value.DoubleValue
10.100

@<SCITEGIC>MOL_PROPERTY
Coulomb
SciTegic.value.DoubleValue
-0.883

@<SCITEGIC>MOL_PROPERTY
VdW
SciTegic.value.DoubleValue
0.828

@<SCITEGIC>MOL_PROPERTY
VdW6
SciTegic.value.DoubleValue
-8.177

@<SCITEGIC>MOL_PROPERTY
VdW12
SciTegic.value.DoubleValue
9.004

@<SCITEGIC>MOL_PROPERTY
Bond
SciTegic.value.DoubleValue
0.182

@<SCITEGIC>MOL_PROPERTY
Angle
SciTegic.value.DoubleValue
2.988

@<SCITEGIC>MOL_PROPERTY
Pdih
SciTegic.value.DoubleValue
6.930

@<SCITEGIC>MOL_PROPERTY
Idih
SciTegic.value.DoubleValue
0.001

@<SCITEGIC>MOL_PROPERTY
Tether
SciTegic.value.DoubleValue
0.000

@<TRIPOS>MOLECULE
guest-s21_confgen4.mol2 : confsearch ligand conformer 994
          22          21           1
SMALL
USER_CHARGES
 
@<TRIPOS>ATOM
       1    C1      17.152040   18.123102   23.243842 C.2        1 MOL1         0.6145
       2    O1      16.403238   19.059784   23.045303 O.co2      1 MOL1        -0.6735
       3    O2      17.431134   17.711549   24.352800 O.co2      1 MOL1        -0.6735
       4    C2      17.717363   17.377999   22.036081 C.3        1 MOL1        -0.1985
       5    H1      16.857746   16.946689   21.510189 H          1 MOL1         0.0740
       6    H2      18.324260   16.535377   22.388934 H          1 MOL1         0.0740
       7    C3      18.533529   18.249827   21.040656 C.3        1 MOL1        -0.1882
       8    H3      18.564076   17.724598   20.076486 H          1 MOL1         0.0742
       9    H4      18.007165   19.195944   20.852575 H          1 MOL1         0.0742
      10    C4      19.994634   18.531261   21.470634 C.3        1 MOL1        -0.1880
      11    H5      20.511185   19.014567   20.630060 H          1 MOL1         0.0742
      12    H6      20.517028   17.581426   21.648811 H          1 MOL1         0.0742
      13    C5      20.121682   19.435765   22.717324 C.3        1 MOL1        -0.1880
      14    H7      19.514822   20.341219   22.579773 H          1 MOL1         0.0742
      15    H8      19.726255   18.914566   23.598262 H          1 MOL1         0.0742
      16    C6      21.588569   19.832417   22.987243 C.3        1 MOL1        -0.1856
      17    H9      21.995952   20.363832   22.116041 H          1 MOL1         0.0742
      18    H10     22.197187   18.927712   23.123280 H          1 MOL1         0.0742
      19    C7      21.714076   20.727168   24.236677 C.3        1 MOL1        -0.2871
      20    H11     21.139212   21.654533   24.114631 H          1 MOL1         0.0754
      21    H12     22.762667   20.998861   24.414620 H          1 MOL1         0.0754
      22    H13     21.341668   20.208334   25.129776 H          1 MOL1         0.0754
@<TRIPOS>BOND
    1     1     2    1
    2     1     3    2
    3     1     4    1
    4     4     5    1
    5     4     6    1
    6     4     7    1
    7     7     8    1
    8     7     9    1
    9     7    10    1
   10    10    11    1
   11    10    12    1
   12    10    13    1
   13    13    14    1
   14    13    15    1
   15    13    16    1
   16    16    17    1
   17    16    18    1
   18    16    19    1
   19    19    20    1
   20    19    21    1
   21    19    22    1
@<TRIPOS>SUBSTRUCTURE
       1 MOL1            1 RESIDUE      1      MOL     
@<SCITEGIC>MOL_PROPERTY
VConf Rank
SciTegic.value.IntegerValue
994

@<SCITEGIC>MOL_PROPERTY
Conf_Id
SciTegic.value.IntegerValue
8

@<SCITEGIC>MOL_PROPERTY
Delta U+W
SciTegic.value.DoubleValue
1.886

@<SCITEGIC>MOL_PROPERTY
U+W
SciTegic.value.DoubleValue
-51.274

@<SCITEGIC>MOL_PROPERTY
Grad RMS
SciTegic.value.DoubleValue
0.000000

@<SCITEGIC>MOL_PROPERTY
U
SciTegic.value.DoubleValue
11.237

@<SCITEGIC>MOL_PROPERTY
W
SciTegic.value.DoubleValue
-62.510

@<SCITEGIC>MOL_PROPERTY
W(PB)
SciTegic.value.DoubleValue
-64.777

@<SCITEGIC>MOL_PROPERTY
W(SA)
SciTegic.value.DoubleValue
2.267

@<SCITEGIC>MOL_PROPERTY
Valence
SciTegic.value.DoubleValue
9.029

@<SCITEGIC>MOL_PROPERTY
Coulomb
SciTegic.value.DoubleValue
1.667

@<SCITEGIC>MOL_PROPERTY
VdW
SciTegic.value.DoubleValue
0.540

@<SCITEGIC>MOL_PROPERTY
VdW6
SciTegic.value.DoubleValue
-8.825

@<SCITEGIC>MOL_PROPERTY
VdW12
SciTegic.value.DoubleValue
9.365

@<SCITEGIC>MOL_PROPERTY
Bond
SciTegic.value.DoubleValue
0.186

@<SCITEGIC>MOL_PROPERTY
Angle
SciTegic.value.DoubleValue
3.195

@<SCITEGIC>MOL_PROPERTY
Pdih
SciTegic.value.DoubleValue
5.642

@<SCITEGIC>MOL_PROPERTY
Idih
SciTegic.value.DoubleValue
0.007

@<SCITEGIC>MOL_PROPERTY
Tether
SciTegic.value.DoubleValue
0.000

@<TRIPOS>MOLECULE
guest-s21_confgen4.mol2 : confsearch ligand conformer 995
          22          21           1
SMALL
USER_CHARGES
 
@<TRIPOS>ATOM
       1    C1      16.901762   18.554049   21.158580 C.2        1 MOL1         0.6145
       2    O1      16.407961   19.233376   22.036896 O.co2      1 MOL1        -0.6735
       3    O2      16.439761   17.491753   20.790628 O.co2      1 MOL1        -0.6735
       4    C2      18.153047   19.075401   20.457407 C.3        1 MOL1        -0.1985
       5    H1      18.273350   20.137854   20.697052 H          1 MOL1         0.0740
       6    H2      17.967615   19.021347   19.378326 H          1 MOL1         0.0740
       7    C3      19.447003   18.285041   20.795275 C.3        1 MOL1        -0.1882
       8    H3      19.317269   17.244020   20.468518 H          1 MOL1         0.0742
       9    H4      20.280933   18.690051   20.206327 H          1 MOL1         0.0742
      10    C4      19.832704   18.290083   22.295255 C.3        1 MOL1        -0.1880
      11    H5      20.698402   17.628310   22.424156 H          1 MOL1         0.0742
      12    H6      19.018066   17.853671   22.889253 H          1 MOL1         0.0742
      13    C5      20.174526   19.698960   22.839010 C.3        1 MOL1        -0.1880
      14    H7      20.975417   20.146830   22.235289 H          1 MOL1         0.0742
      15    H8      19.298159   20.351162   22.731563 H          1 MOL1         0.0742
      16    C6      20.587710   19.698476   24.329405 C.3        1 MOL1        -0.1856
      17    H9      19.794613   19.236770   24.933725 H          1 MOL1         0.0742
      18    H10     20.671024   20.739454   24.670871 H          1 MOL1         0.0742
      19    C7      21.929684   18.982009   24.595101 C.3        1 MOL1        -0.2871
      20    H11     21.860647   17.907840   24.383575 H          1 MOL1         0.0754
      21    H12     22.222312   19.094262   25.647083 H          1 MOL1         0.0754
      22    H13     22.730538   19.405106   23.974842 H          1 MOL1         0.0754
@<TRIPOS>BOND
    1     1     2    1
    2     1     3    2
    3     1     4    1
    4     4     5    1
    5     4     6    1
    6     4     7    1
    7     7     8    1
    8     7     9    1
    9     7    10    1
   10    10    11    1
   11    10    12    1
   12    10    13    1
   13    13    14    1
   14    13    15    1
   15    13    16    1
   16    16    17    1
   17    16    18    1
   18    16    19    1
   19    19    20    1
   20    19    21    1
   21    19    22    1
@<TRIPOS>SUBSTRUCTURE
       1 MOL1            1 RESIDUE      1      MOL     
@<SCITEGIC>MOL_PROPERTY
VConf Rank
SciTegic.value.IntegerValue
995

@<SCITEGIC>MOL_PROPERTY
Conf_Id
SciTegic.value.IntegerValue
93

@<SCITEGIC>MOL_PROPERTY
Delta U+W
SciTegic.value.DoubleValue
1.836

@<SCITEGIC>MOL_PROPERTY
U+W
SciTegic.value.DoubleValue
-51.323

@<SCITEGIC>MOL_PROPERTY
Grad RMS
SciTegic.value.DoubleValue
0.000000

@<SCITEGIC>MOL_PROPERTY
U
SciTegic.value.DoubleValue
10.427

@<SCITEGIC>MOL_PROPERTY
W
SciTegic.value.DoubleValue
-61.751

@<SCITEGIC>MOL_PROPERTY
W(PB)
SciTegic.value.DoubleValue
-63.980

@<SCITEGIC>MOL_PROPERTY
W(SA)
SciTegic.value.DoubleValue
2.230

@<SCITEGIC>MOL_PROPERTY
Valence
SciTegic.value.DoubleValue
8.446

@<SCITEGIC>MOL_PROPERTY
Coulomb
SciTegic.value.DoubleValue
1.306

@<SCITEGIC>MOL_PROPERTY
VdW
SciTegic.value.DoubleValue
0.676

@<SCITEGIC>MOL_PROPERTY
VdW6
SciTegic.value.DoubleValue
-8.928

@<SCITEGIC>MOL_PROPERTY
VdW12
SciTegic.value.DoubleValue
9.604

@<SCITEGIC>MOL_PROPERTY
Bond
SciTegic.value.DoubleValue
0.209

@<SCITEGIC>MOL_PROPERTY
Angle
SciTegic.value.DoubleValue
3.066

@<SCITEGIC>MOL_PROPERTY
Pdih
SciTegic.value.DoubleValue
5.170

@<SCITEGIC>MOL_PROPERTY
Idih
SciTegic.value.DoubleValue
0.001

@<SCITEGIC>MOL_PROPERTY
Tether
SciTegic.value.DoubleValue
0.000

@<TRIPOS>MOLECULE
guest-s21_confgen4.mol2 : confsearch ligand conformer 996
          22          21           1
SMALL
USER_CHARGES
 
@<TRIPOS>ATOM
       1    C1      17.536021   17.092129   23.287749 C.2        1 MOL1         0.6145
       2    O1      17.678422   15.885978   23.334926 O.co2      1 MOL1        -0.6735
       3    O2      16.746959   17.647170   22.548778 O.co2      1 MOL1        -0.6735
       4    C2      18.373334   17.952388   24.230100 C.3        1 MOL1        -0.1985
       5    H1      18.266151   17.531296   25.236537 H          1 MOL1         0.0740
       6    H2      17.938508   18.957469   24.268147 H          1 MOL1         0.0740
       7    C3      19.880598   18.018457   23.860043 C.3        1 MOL1        -0.1882
       8    H3      20.412645   18.607609   24.619093 H          1 MOL1         0.0742
       9    H4      20.298680   17.003562   23.910257 H          1 MOL1         0.0742
      10    C4      20.175356   18.607948   22.458491 C.3        1 MOL1        -0.1880
      11    H5      19.675766   18.003371   21.689191 H          1 MOL1         0.0742
      12    H6      21.252869   18.516137   22.272667 H          1 MOL1         0.0742
      13    C5      19.750576   20.089613   22.311273 C.3        1 MOL1        -0.1880
      14    H7      18.668111   20.173879   22.472844 H          1 MOL1         0.0742
      15    H8      20.232705   20.694410   23.091187 H          1 MOL1         0.0742
      16    C6      20.072145   20.685450   20.920746 C.3        1 MOL1        -0.1856
      17    H9      19.613304   21.681328   20.850983 H          1 MOL1         0.0742
      18    H10     19.603790   20.073057   20.137804 H          1 MOL1         0.0742
      19    C7      21.585597   20.817797   20.643699 C.3        1 MOL1        -0.2871
      20    H11     22.070322   19.835673   20.581863 H          1 MOL1         0.0754
      21    H12     22.080404   21.397727   21.433603 H          1 MOL1         0.0754
      22    H13     21.756917   21.332363   19.689357 H          1 MOL1         0.0754
@<TRIPOS>BOND
    1     1     2    1
    2     1     3    2
    3     1     4    1
    4     4     5    1
    5     4     6    1
    6     4     7    1
    7     7     8    1
    8     7     9    1
    9     7    10    1
   10    10    11    1
   11    10    12    1
   12    10    13    1
   13    13    14    1
   14    13    15    1
   15    13    16    1
   16    16    17    1
   17    16    18    1
   18    16    19    1
   19    19    20    1
   20    19    21    1
   21    19    22    1
@<TRIPOS>SUBSTRUCTURE
       1 MOL1            1 RESIDUE      1      MOL     
@<SCITEGIC>MOL_PROPERTY
VConf Rank
SciTegic.value.IntegerValue
996

@<SCITEGIC>MOL_PROPERTY
Conf_Id
SciTegic.value.IntegerValue
70

@<SCITEGIC>MOL_PROPERTY
Delta U+W
SciTegic.value.DoubleValue
1.803

@<SCITEGIC>MOL_PROPERTY
U+W
SciTegic.value.DoubleValue
-51.356

@<SCITEGIC>MOL_PROPERTY
Grad RMS
SciTegic.value.DoubleValue
0.000000

@<SCITEGIC>MOL_PROPERTY
U
SciTegic.value.DoubleValue
10.428

@<SCITEGIC>MOL_PROPERTY
W
SciTegic.value.DoubleValue
-61.784

@<SCITEGIC>MOL_PROPERTY
W(PB)
SciTegic.value.DoubleValue
-64.014

@<SCITEGIC>MOL_PROPERTY
W(SA)
SciTegic.value.DoubleValue
2.230

@<SCITEGIC>MOL_PROPERTY
Valence
SciTegic.value.DoubleValue
8.445

@<SCITEGIC>MOL_PROPERTY
Coulomb
SciTegic.value.DoubleValue
1.306

@<SCITEGIC>MOL_PROPERTY
VdW
SciTegic.value.DoubleValue
0.676

@<SCITEGIC>MOL_PROPERTY
VdW6
SciTegic.value.DoubleValue
-8.929

@<SCITEGIC>MOL_PROPERTY
VdW12
SciTegic.value.DoubleValue
9.605

@<SCITEGIC>MOL_PROPERTY
Bond
SciTegic.value.DoubleValue
0.209

@<SCITEGIC>MOL_PROPERTY
Angle
SciTegic.value.DoubleValue
3.066

@<SCITEGIC>MOL_PROPERTY
Pdih
SciTegic.value.DoubleValue
5.170

@<SCITEGIC>MOL_PROPERTY
Idih
SciTegic.value.DoubleValue
0.001

@<SCITEGIC>MOL_PROPERTY
Tether
SciTegic.value.DoubleValue
0.000

@<TRIPOS>MOLECULE
guest-s21_confgen4.mol2 : confsearch ligand conformer 997
          22          21           1
SMALL
USER_CHARGES
 
@<TRIPOS>ATOM
       1    C1      18.880684   17.163348   19.745688 C.2        1 MOL1         0.6145
       2    O1      19.875860   16.494964   19.546187 O.co2      1 MOL1        -0.6735
       3    O2      18.377415   17.886396   18.908550 O.co2      1 MOL1        -0.6735
       4    C2      18.216137   17.072024   21.116503 C.3        1 MOL1        -0.1985
       5    H1      18.168468   16.010953   21.388341 H          1 MOL1         0.0740
       6    H2      17.181071   17.423639   21.027944 H          1 MOL1         0.0740
       7    C3      18.956724   17.858902   22.228859 C.3        1 MOL1        -0.1882
       8    H3      18.489851   17.632895   23.196958 H          1 MOL1         0.0742
       9    H4      19.994030   17.503318   22.285320 H          1 MOL1         0.0742
      10    C4      18.927254   19.387822   21.992008 C.3        1 MOL1        -0.1880
      11    H5      17.885565   19.707120   21.851396 H          1 MOL1         0.0742
      12    H6      19.453732   19.631151   21.058779 H          1 MOL1         0.0742
      13    C5      19.538248   20.203449   23.156039 C.3        1 MOL1        -0.1880
      14    H7      19.364864   21.270693   22.961574 H          1 MOL1         0.0742
      15    H8      19.008329   19.967726   24.089037 H          1 MOL1         0.0742
      16    C6      21.053969   19.967735   23.343652 C.3        1 MOL1        -0.1856
      17    H9      21.577732   20.152507   22.395602 H          1 MOL1         0.0742
      18    H10     21.243303   18.921057   23.615641 H          1 MOL1         0.0742
      19    C7      21.637467   20.883735   24.438278 C.3        1 MOL1        -0.2871
      20    H11     21.499977   21.941935   24.180090 H          1 MOL1         0.0754
      21    H12     22.713068   20.702230   24.561561 H          1 MOL1         0.0754
      22    H13     21.149703   20.700199   25.404598 H          1 MOL1         0.0754
@<TRIPOS>BOND
    1     1     2    1
    2     1     3    2
    3     1     4    1
    4     4     5    1
    5     4     6    1
    6     4     7    1
    7     7     8    1
    8     7     9    1
    9     7    10    1
   10    10    11    1
   11    10    12    1
   12    10    13    1
   13    13    14    1
   14    13    15    1
   15    13    16    1
   16    16    17    1
   17    16    18    1
   18    16    19    1
   19    19    20    1
   20    19    21    1
   21    19    22    1
@<TRIPOS>SUBSTRUCTURE
       1 MOL1            1 RESIDUE      1      MOL     
@<SCITEGIC>MOL_PROPERTY
VConf Rank
SciTegic.value.IntegerValue
997

@<SCITEGIC>MOL_PROPERTY
Conf_Id
SciTegic.value.IntegerValue
85

@<SCITEGIC>MOL_PROPERTY
Delta U+W
SciTegic.value.DoubleValue
0.707

@<SCITEGIC>MOL_PROPERTY
U+W
SciTegic.value.DoubleValue
-52.452

@<SCITEGIC>MOL_PROPERTY
Grad RMS
SciTegic.value.DoubleValue
0.000000

@<SCITEGIC>MOL_PROPERTY
U
SciTegic.value.DoubleValue
8.925

@<SCITEGIC>MOL_PROPERTY
W
SciTegic.value.DoubleValue
-61.378

@<SCITEGIC>MOL_PROPERTY
W(PB)
SciTegic.value.DoubleValue
-63.661

@<SCITEGIC>MOL_PROPERTY
W(SA)
SciTegic.value.DoubleValue
2.283

@<SCITEGIC>MOL_PROPERTY
Valence
SciTegic.value.DoubleValue
7.881

@<SCITEGIC>MOL_PROPERTY
Coulomb
SciTegic.value.DoubleValue
0.349

@<SCITEGIC>MOL_PROPERTY
VdW
SciTegic.value.DoubleValue
0.695

@<SCITEGIC>MOL_PROPERTY
VdW6
SciTegic.value.DoubleValue
-8.049

@<SCITEGIC>MOL_PROPERTY
VdW12
SciTegic.value.DoubleValue
8.743

@<SCITEGIC>MOL_PROPERTY
Bond
SciTegic.value.DoubleValue
0.156

@<SCITEGIC>MOL_PROPERTY
Angle
SciTegic.value.DoubleValue
2.660

@<SCITEGIC>MOL_PROPERTY
Pdih
SciTegic.value.DoubleValue
5.064

@<SCITEGIC>MOL_PROPERTY
Idih
SciTegic.value.DoubleValue
0.001

@<SCITEGIC>MOL_PROPERTY
Tether
SciTegic.value.DoubleValue
0.000

@<TRIPOS>MOLECULE
guest-s21_confgen4.mol2 : confsearch ligand conformer 998
          22          21           1
SMALL
USER_CHARGES
 
@<TRIPOS>ATOM
       1    C1      21.397803   17.952840   19.567317 C.2        1 MOL1         0.6145
       2    O1      21.997111   16.902572   19.688594 O.co2      1 MOL1        -0.6735
       3    O2      20.662506   18.202965   18.632571 O.co2      1 MOL1        -0.6735
       4    C2      21.596059   19.026380   20.633901 C.3        1 MOL1        -0.1985
       5    H1      21.767740   19.975987   20.113552 H          1 MOL1         0.0740
       6    H2      22.512171   18.800666   21.193048 H          1 MOL1         0.0740
       7    C3      20.398595   19.179912   21.607655 C.3        1 MOL1        -0.1882
       8    H3      20.568832   20.069557   22.226895 H          1 MOL1         0.0742
       9    H4      19.480170   19.358717   21.031634 H          1 MOL1         0.0742
      10    C4      20.214235   17.947487   22.523200 C.3        1 MOL1        -0.1880
      11    H5      21.103564   17.827380   23.156736 H          1 MOL1         0.0742
      12    H6      20.155532   17.042747   21.902844 H          1 MOL1         0.0742
      13    C5      18.949080   18.001655   23.415933 C.3        1 MOL1        -0.1880
      14    H7      18.047083   18.028138   22.789333 H          1 MOL1         0.0742
      15    H8      18.897571   17.055850   23.972409 H          1 MOL1         0.0742
      16    C6      18.926013   19.164307   24.439462 C.3        1 MOL1        -0.1856
      17    H9      19.950619   19.455161   24.709272 H          1 MOL1         0.0742
      18    H10     18.456252   18.806885   25.366215 H          1 MOL1         0.0742
      19    C7      18.131859   20.394296   23.946030 C.3        1 MOL1        -0.2871
      20    H11     18.557356   20.813649   23.027336 H          1 MOL1         0.0754
      21    H12     18.135251   21.184315   24.708052 H          1 MOL1         0.0754
      22    H13     17.086319   20.127878   23.743660 H          1 MOL1         0.0754
@<TRIPOS>BOND
    1     1     2    1
    2     1     3    2
    3     1     4    1
    4     4     5    1
    5     4     6    1
    6     4     7    1
    7     7     8    1
    8     7     9    1
    9     7    10    1
   10    10    11    1
   11    10    12    1
   12    10    13    1
   13    13    14    1
   14    13    15    1
   15    13    16    1
   16    16    17    1
   17    16    18    1
   18    16    19    1
   19    19    20    1
   20    19    21    1
   21    19    22    1
@<TRIPOS>SUBSTRUCTURE
       1 MOL1            1 RESIDUE      1      MOL     
@<SCITEGIC>MOL_PROPERTY
VConf Rank
SciTegic.value.IntegerValue
998

@<SCITEGIC>MOL_PROPERTY
Conf_Id
SciTegic.value.IntegerValue
82

@<SCITEGIC>MOL_PROPERTY
Delta U+W
SciTegic.value.DoubleValue
3.438

@<SCITEGIC>MOL_PROPERTY
U+W
SciTegic.value.DoubleValue
-49.721

@<SCITEGIC>MOL_PROPERTY
Grad RMS
SciTegic.value.DoubleValue
0.000000

@<SCITEGIC>MOL_PROPERTY
U
SciTegic.value.DoubleValue
11.773

@<SCITEGIC>MOL_PROPERTY
W
SciTegic.value.DoubleValue
-61.495

@<SCITEGIC>MOL_PROPERTY
W(PB)
SciTegic.value.DoubleValue
-63.749

@<SCITEGIC>MOL_PROPERTY
W(SA)
SciTegic.value.DoubleValue
2.254

@<SCITEGIC>MOL_PROPERTY
Valence
SciTegic.value.DoubleValue
10.419

@<SCITEGIC>MOL_PROPERTY
Coulomb
SciTegic.value.DoubleValue
0.565

@<SCITEGIC>MOL_PROPERTY
VdW
SciTegic.value.DoubleValue
0.789

@<SCITEGIC>MOL_PROPERTY
VdW6
SciTegic.value.DoubleValue
-8.847

@<SCITEGIC>MOL_PROPERTY
VdW12
SciTegic.value.DoubleValue
9.636

@<SCITEGIC>MOL_PROPERTY
Bond
SciTegic.value.DoubleValue
0.200

@<SCITEGIC>MOL_PROPERTY
Angle
SciTegic.value.DoubleValue
3.187

@<SCITEGIC>MOL_PROPERTY
Pdih
SciTegic.value.DoubleValue
7.032

@<SCITEGIC>MOL_PROPERTY
Idih
SciTegic.value.DoubleValue
0.001

@<SCITEGIC>MOL_PROPERTY
Tether
SciTegic.value.DoubleValue
0.000

@<TRIPOS>MOLECULE
guest-s21_confgen4.mol2 : confsearch ligand conformer 999
          22          21           1
SMALL
USER_CHARGES
 
@<TRIPOS>ATOM
       1    C1      18.614196   18.372306   19.359886 C.2        1 MOL1         0.6145
       2    O1      19.475391   18.582315   18.528494 O.co2      1 MOL1        -0.6735
       3    O2      17.878618   17.405199   19.336016 O.co2      1 MOL1        -0.6735
       4    C2      18.432876   19.391797   20.481117 C.3        1 MOL1        -0.1985
       5    H1      17.438729   19.254075   20.923339 H          1 MOL1         0.0740
       6    H2      18.440725   20.387277   20.021825 H          1 MOL1         0.0740
       7    C3      19.522985   19.322184   21.582256 C.3        1 MOL1        -0.1882
       8    H3      20.515452   19.414301   21.119869 H          1 MOL1         0.0742
       9    H4      19.396621   20.184837   22.248415 H          1 MOL1         0.0742
      10    C4      19.447888   18.019853   22.412542 C.3        1 MOL1        -0.1880
      11    H5      19.462551   17.157137   21.732581 H          1 MOL1         0.0742
      12    H6      18.484964   17.978228   22.939556 H          1 MOL1         0.0742
      13    C5      20.601423   17.848182   23.432549 C.3        1 MOL1        -0.1880
      14    H7      20.471506   16.870073   23.915551 H          1 MOL1         0.0742
      15    H8      21.564365   17.795056   22.906386 H          1 MOL1         0.0742
      16    C6      20.654250   18.929207   24.540922 C.3        1 MOL1        -0.1856
      17    H9      20.968496   18.453747   25.480328 H          1 MOL1         0.0742
      18    H10     19.650192   19.335410   24.725528 H          1 MOL1         0.0742
      19    C7      21.646185   20.072183   24.229958 C.3        1 MOL1        -0.2871
      20    H11     22.666349   19.683030   24.116327 H          1 MOL1         0.0754
      21    H12     21.655786   20.804995   25.047095 H          1 MOL1         0.0754
      22    H13     21.382422   20.602490   23.307945 H          1 MOL1         0.0754
@<TRIPOS>BOND
    1     1     2    1
    2     1     3    2
    3     1     4    1
    4     4     5    1
    5     4     6    1
    6     4     7    1
    7     7     8    1
    8     7     9    1
    9     7    10    1
   10    10    11    1
   11    10    12    1
   12    10    13    1
   13    13    14    1
   14    13    15    1
   15    13    16    1
   16    16    17    1
   17    16    18    1
   18    16    19    1
   19    19    20    1
   20    19    21    1
   21    19    22    1
@<TRIPOS>SUBSTRUCTURE
       1 MOL1            1 RESIDUE      1      MOL     
@<SCITEGIC>MOL_PROPERTY
VConf Rank
SciTegic.value.IntegerValue
999

@<SCITEGIC>MOL_PROPERTY
Conf_Id
SciTegic.value.IntegerValue
94

@<SCITEGIC>MOL_PROPERTY
Delta U+W
SciTegic.value.DoubleValue
3.471

@<SCITEGIC>MOL_PROPERTY
U+W
SciTegic.value.DoubleValue
-49.688

@<SCITEGIC>MOL_PROPERTY
Grad RMS
SciTegic.value.DoubleValue
0.000000

@<SCITEGIC>MOL_PROPERTY
U
SciTegic.value.DoubleValue
11.773

@<SCITEGIC>MOL_PROPERTY
W
SciTegic.value.DoubleValue
-61.461

@<SCITEGIC>MOL_PROPERTY
W(PB)
SciTegic.value.DoubleValue
-63.710

@<SCITEGIC>MOL_PROPERTY
W(SA)
SciTegic.value.DoubleValue
2.248

@<SCITEGIC>MOL_PROPERTY
Valence
SciTegic.value.DoubleValue
10.419

@<SCITEGIC>MOL_PROPERTY
Coulomb
SciTegic.value.DoubleValue
0.566

@<SCITEGIC>MOL_PROPERTY
VdW
SciTegic.value.DoubleValue
0.789

@<SCITEGIC>MOL_PROPERTY
VdW6
SciTegic.value.DoubleValue
-8.847

@<SCITEGIC>MOL_PROPERTY
VdW12
SciTegic.value.DoubleValue
9.636

@<SCITEGIC>MOL_PROPERTY
Bond
SciTegic.value.DoubleValue
0.200

@<SCITEGIC>MOL_PROPERTY
Angle
SciTegic.value.DoubleValue
3.187

@<SCITEGIC>MOL_PROPERTY
Pdih
SciTegic.value.DoubleValue
7.032

@<SCITEGIC>MOL_PROPERTY
Idih
SciTegic.value.DoubleValue
0.001

@<SCITEGIC>MOL_PROPERTY
Tether
SciTegic.value.DoubleValue
0.000

@<TRIPOS>MOLECULE
guest-s21_confgen4.mol2 : confsearch ligand conformer 1000
          22          21           1
SMALL
USER_CHARGES
 
@<TRIPOS>ATOM
       1    C1      20.215331   21.753066   20.429630 C.2        1 MOL1         0.6145
       2    O1      20.784961   21.912742   19.368158 O.co2      1 MOL1        -0.6735
       3    O2      20.080211   22.630723   21.259109 O.co2      1 MOL1        -0.6735
       4    C2      19.656577   20.370389   20.745750 C.3        1 MOL1        -0.1985
       5    H1      19.338787   19.907411   19.804000 H          1 MOL1         0.0740
       6    H2      18.760014   20.505500   21.361341 H          1 MOL1         0.0740
       7    C3      20.681732   19.460041   21.470166 C.3        1 MOL1        -0.1882
       8    H3      21.598763   19.411498   20.867012 H          1 MOL1         0.0742
       9    H4      20.970390   19.918920   22.425118 H          1 MOL1         0.0742
      10    C4      20.168811   18.017246   21.706110 C.3        1 MOL1        -0.1880
      11    H5      20.968975   17.427807   22.172771 H          1 MOL1         0.0742
      12    H6      19.980769   17.544414   20.732654 H          1 MOL1         0.0742
      13    C5      18.882683   17.906047   22.566735 C.3        1 MOL1        -0.1880
      14    H7      18.041382   18.355248   22.022968 H          1 MOL1         0.0742
      15    H8      18.628524   16.843467   22.680191 H          1 MOL1         0.0742
      16    C6      18.972588   18.549711   23.972275 C.3        1 MOL1        -0.1856
      17    H9      18.002183   18.432739   24.473812 H          1 MOL1         0.0742
      18    H10     19.139906   19.631385   23.882900 H          1 MOL1         0.0742
      19    C7      20.069583   17.924059   24.860512 C.3        1 MOL1        -0.2871
      20    H11     19.930809   16.838859   24.950161 H          1 MOL1         0.0754
      21    H12     20.038524   18.354182   25.869855 H          1 MOL1         0.0754
      22    H13     21.069660   18.110915   24.449552 H          1 MOL1         0.0754
@<TRIPOS>BOND
    1     1     2    1
    2     1     3    2
    3     1     4    1
    4     4     5    1
    5     4     6    1
    6     4     7    1
    7     7     8    1
    8     7     9    1
    9     7    10    1
   10    10    11    1
   11    10    12    1
   12    10    13    1
   13    13    14    1
   14    13    15    1
   15    13    16    1
   16    16    17    1
   17    16    18    1
   18    16    19    1
   19    19    20    1
   20    19    21    1
   21    19    22    1
@<TRIPOS>SUBSTRUCTURE
       1 MOL1            1 RESIDUE      1      MOL     
@<SCITEGIC>MOL_PROPERTY
VConf Rank
SciTegic.value.IntegerValue
1000

@<SCITEGIC>MOL_PROPERTY
Conf_Id
SciTegic.value.IntegerValue
56

@<SCITEGIC>MOL_PROPERTY
Delta U+W
SciTegic.value.DoubleValue
0.853

@<SCITEGIC>MOL_PROPERTY
U+W
SciTegic.value.DoubleValue
-52.307

@<SCITEGIC>MOL_PROPERTY
Grad RMS
SciTegic.value.DoubleValue
0.000000

@<SCITEGIC>MOL_PROPERTY
U
SciTegic.value.DoubleValue
8.874

@<SCITEGIC>MOL_PROPERTY
W
SciTegic.value.DoubleValue
-61.181

@<SCITEGIC>MOL_PROPERTY
W(PB)
SciTegic.value.DoubleValue
-63.413

@<SCITEGIC>MOL_PROPERTY
W(SA)
SciTegic.value.DoubleValue
2.232

@<SCITEGIC>MOL_PROPERTY
Valence
SciTegic.value.DoubleValue
8.479

@<SCITEGIC>MOL_PROPERTY
Coulomb
SciTegic.value.DoubleValue
-0.357

@<SCITEGIC>MOL_PROPERTY
VdW
SciTegic.value.DoubleValue
0.753

@<SCITEGIC>MOL_PROPERTY
VdW6
SciTegic.value.DoubleValue
-9.081

@<SCITEGIC>MOL_PROPERTY
VdW12
SciTegic.value.DoubleValue
9.833

@<SCITEGIC>MOL_PROPERTY
Bond
SciTegic.value.DoubleValue
0.221

@<SCITEGIC>MOL_PROPERTY
Angle
SciTegic.value.DoubleValue
3.208

@<SCITEGIC>MOL_PROPERTY
Pdih
SciTegic.value.DoubleValue
5.050

@<SCITEGIC>MOL_PROPERTY
Idih
SciTegic.value.DoubleValue
0.000

@<SCITEGIC>MOL_PROPERTY
Tether
SciTegic.value.DoubleValue
0.000

